*Heading
** Job name: C3D4Less Model name: Model-1
** Generated by: Abaqus/CAE 2021
*Preprint, echo=NO, model=NO, history=NO, contact=NO
**
** PARTS
**
*Part, name=final_model
*Node
      1,   3.09950089,  0.144070998,           0.
      2,   3.09950089,  0.144070998,          80.
      3,   1.45265806, -0.156816006,           3.
      4,   1.45265806, -0.156816006,          77.
      5,    3.2590642,    1.8198458,           0.
      6,    3.6524291,   3.46319389,           0.
      7,   3.30217624,   5.09614944,           0.
      8,    2.0899899,   6.24696207,           0.
      9,  0.474936157,   6.74214792,           0.
     10,  -1.14501619,   7.22314548,           0.
     11,  -2.80565596,   7.46301985,           0.
     12,  -4.41085768,   6.98205566,           0.
     13,  -5.63092852,   5.81165123,           0.
     14,  -6.90796661,   4.48590088,           0.
     15,  -7.91131115,   2.94518709,           0.
     16,  -8.54349995,   1.21948659,           0.
     17,  -8.61852551, -0.618448377,           0.
     18,   -8.1654253,  -2.39521885,           0.
     19,  -7.28518152,  -4.01178122,           0.
     20,  -6.08181667,   -5.4069047,           0.
** ... 8198 like lines cut
*Element, type=C3D4
    1, 5233, 5234, 5235, 5236
    2, 5233, 5237, 5234, 5238
    3, 5239, 5240, 4004, 5241
    4, 2274, 2243, 2278, 5238
    5, 5233, 2243, 5237, 5238
    6, 5242, 5243, 5244, 5245
    7, 5243, 5244, 5245, 5246
    8, 5246, 5247, 5243, 5244
    9, 5246, 5248, 5244, 5249
   10, 5246, 2472, 5250, 5251
   11, 5246, 2467, 5252, 5243
   12, 2467, 2472, 5250, 5246
   13, 5253, 5254, 5255, 4101
   14, 5256, 5257, 1410, 1407
   15, 5256, 5258, 4342, 5160
   16, 5256, 5259, 1402, 5257
   17, 5256, 5258, 1409, 5260
   18, 5256, 5257, 4345, 4470
   19, 5256, 5259, 5257, 4470
   20, 5261, 2910, 1771, 5262
** ... 33592 like lines cut
*Nset, nset=surface_0_Head
    2,   79,   80,   81,   82,   83,   84,   85,   86,   87,   88,   89,   90,   91,   92,   93
   94,   95,   96,   97,   98,   99,  100,  101,  102, 2941, 2942, 2943, 2944, 2945, 2946, 2947
 2948, 2949, 2950, 2951, 2952, 2953, 2954, 2955, 2956, 2957, 2958, 2959, 2960, 2961, 2962, 2963
 2964, 2965, 2966, 2967, 2968, 2969, 2970, 2971, 2972, 2973, 2974, 2975, 2976, 2977, 2978, 2979
 2980, 2981
*Elset, elset=surface_0_Head
    79,   247,   248,   592,   688,  1727,  3792,  7607,  8433,  8812, 10450, 10548, 11491, 11523, 11531, 11560
 11586, 11618, 11641, 11680, 11906, 11950, 11957, 11969, 11971, 12015, 12017, 12032, 12039, 12046, 12058, 12220
 12235, 12279, 12286, 14683, 16265, 16932, 16934, 18083, 20570, 22388, 22666, 22700, 22702, 23250, 23558, 23565
 24342, 24503, 25483, 25758, 25764, 25767, 25776, 25777, 25778, 25782, 25786, 25797, 25802, 25807, 25826, 25830
 25833, 25839, 25848, 25851, 25852, 25871, 25884, 25891, 25898, 25900, 25904, 25923, 25926, 25927, 25938, 25951
 25953, 25956, 25957, 26931, 27583, 29444, 29733, 29812, 29813, 29830, 29832, 29833, 29834, 29837, 29858, 29867
 29885, 29939, 30078, 30096, 30097, 30100, 30115, 30116, 30118
*Nset, nset=surface_0_Bottom
   1,   5,   6,   7,   8,   9,  10,  11,  12,  13,  14,  15,  16,  17,  18,  19
  20,  21,  22,  23,  24,  25,  26,  27,  28, 193, 194, 195, 196, 197, 198, 199
 200, 201, 202, 203, 204, 205, 206, 207, 208, 209, 210, 211, 212, 213, 214, 215
 216, 217, 218, 219, 220, 221, 222, 223, 224, 225, 226, 227, 228, 229, 230, 231
 232, 233, 234
*Elset, elset=surface_0_Bottom
  2205,  2372,  2678,  3212,  4457,  5349,  6813,  6853,  7061,  7081,  7088,  7121,  7337,  7608,  7615,  7621
  7622,  7627,  7641,  7642,  7654,  7662,  7674,  7684,  7690,  7691,  7695,  7715,  7718,  7723,  7724,  7742
  7744,  7768,  7772,  7803,  7813,  7816,  7819,  7822,  7824,  7833,  7840,  7847,  7851,  7853,  7866,  7867
  7872,  7873,  7894,  7898,  7899,  7932,  7935,  7936,  7947,  7948,  7964,  7967,  7970,  7972,  7977,  7984
  7989,  7992,  7993,  7994,  7996,  8000,  8002,  8006,  8235,  8281,  8283,  8310,  8325,  8366,  8388,  8392
  8394,  8395,  8439,  8470,  8472,  8473,  8477,  8516,  8517,  8518,  8532,  8533,  8551,  8581,  8588,  8589
  8592, 10632, 15596, 15601, 17776, 19953, 22566, 26022, 26036, 26262, 28950
*Nset, nset=lateral1
    3,    4,  103,  104,  105,  106,  107,  108,  109,  110,  111,  112,  113,  114,  115,  116
  117,  118,  119,  120,  121,  122,  123,  124,  125,  126,  127,  128,  129,  130,  131,  132
  133,  134,  135,  136,  137,  138,  139,  140,  141,  142,  143,  144,  145,  146,  147,  148
  149,  150,  151,  152,  153,  154,  155,  156,  157,  158,  159,  160,  161,  162,  163,  164
  165,  166,  167,  168,  169,  170,  171,  172,  173,  174,  175,  176,  177,  178,  179,  180
  181,  182,  183,  184,  185,  186,  187,  188,  189,  190,  191,  192, 2997, 2998, 2999, 3000
 3001, 3002, 3003, 3004, 3005, 3006, 3007, 3008, 3009, 3010, 3011, 3012, 3013, 3014, 3015, 3016
 3017, 3018, 3019, 3020, 3021, 3022, 3023, 3024, 3025, 3026, 3027, 3028, 3029, 3030, 3031, 3032
 3033, 3034, 3035, 3036, 3037, 3038, 3039, 3040, 3041, 3042, 3043, 3044, 3045, 3046, 3047, 3048
 3049, 3050, 3051, 3052, 3053, 3054, 3055, 3056, 3057, 3058, 3059, 3060, 3061, 3062, 3063, 3064
 3065, 3066, 3067, 3068, 3069, 3070, 3071, 3072, 3073, 3074, 3075, 3076, 3077, 3078, 3079, 3080
 3081, 3082, 3083, 3084, 3085, 3086, 3087, 3088, 3089, 3090, 3091, 3092, 3093, 3094, 3095, 3096
 3097, 3098, 3099, 3100, 3101, 3102, 3103, 3104, 3105, 3106, 3107, 3108, 3109, 3110, 3111, 3112
 3113, 3114, 3115, 3116, 3117, 3118, 3119, 3120, 3121, 3122, 3123, 3124, 3125, 3126, 3127, 3128
 3129, 3130, 3131, 3132, 3133, 3134, 3135, 3136, 3137, 3138, 3139, 3140, 3141, 3142, 3143, 3144
 3145, 3146, 3147, 3148, 3149, 3150, 3151, 3152, 3153, 3154, 3155, 3156, 3157, 3158, 3159, 3160
 3161, 3162, 3163, 3164, 3165, 3166, 3167, 3168, 3169, 3170, 3171, 3172, 3173, 3174, 3175, 3176
 3177, 3178, 3179, 3180, 3181, 3182, 3183, 3184, 3185, 3186, 3187, 3188, 3189, 3190, 3191, 3192
 3193, 3194, 3195, 3196, 3197, 3198, 3199, 3200, 3201, 3202, 3203, 3204, 3205, 3206, 3207, 3208
 3209, 3210, 3211, 3212, 3213, 3214, 3215, 3216, 3217, 3218, 3219, 3220, 3221, 3222, 3223, 3224
** ... 125 like lines cut
*Elset, elset=lateral1
    38,    68,   146,   276,   303,   352,   391,   449,   496,   509,   541,   563,   694,   707,   731,   739
   765,   788,   806,   835,   847,   887,   918,   974,  1002,  1005,  1067,  1087,  1156,  1163,  1179,  1208
  1270,  1287,  1313,  1356,  1368,  1411,  1420,  1501,  1511,  1526,  1561,  1609,  1743,  1763,  1765,  1797
  1819,  1824,  1830,  1872,  1921,  1923,  1944,  1951,  1970,  2018,  2042,  2050,  2057,  2102,  2116,  2138
  2151,  2171,  2217,  2223,  2239,  2245,  2252,  2263,  2288,  2312,  2319,  2328,  2332,  2406,  2415,  2417
  2449,  2489,  2504,  2530,  2578,  2588,  2607,  2685,  2700,  2715,  2720,  2723,  2751,  2784,  2797,  2831
  2853,  2856,  2923,  2937,  2949,  2961,  2970,  2972,  2990,  3002,  3014,  3069,  3135,  3170,  3190,  3228
  3244,  3256,  3257,  3261,  3273,  3275,  3277,  3290,  3322,  3349,  3354,  3358,  3367,  3385,  3387,  3395
  3406,  3410,  3427,  3439,  3482,  3486,  3515,  3517,  3561,  3611,  3627,  3637,  3670,  3704,  3715,  3728
  3739,  3813,  3857,  3859,  3894,  3915,  3917,  3944,  3945,  3996,  3999,  4025,  4037,  4080,  4090,  4101
  4134,  4140,  4149,  4158,  4211,  4225,  4292,  4298,  4328,  4335,  4358,  4363,  4390,  4463,  4481,  4495
  4496,  4544,  4545,  4576,  4589,  4602,  4621,  4640,  4641,  4643,  4644,  4652,  4672,  4674,  4675,  4686
  4704,  4716,  4771,  4781,  4784,  4874,  4875,  4888,  4899,  4939,  4973,  4981,  4984,  5003,  5023,  5049
  5067,  5091,  5117,  5130,  5152,  5179,  5181,  5205,  5232,  5251,  5252,  5274,  5280,  5289,  5305,  5341
  5345,  5393,  5411,  5418,  5483,  5527,  5532,  5533,  5542,  5583,  5593,  5644,  5663,  5674,  5676,  5680
  5686,  5717,  5722,  5736,  5763,  5772,  5785,  5797,  5798,  5800,  5813,  5822,  5853,  5888,  5900,  5915
  5932,  5966,  5976,  5985,  5987,  5999,  6033,  6094,  6098,  6116,  6151,  6200,  6236,  6253,  6263,  6294
  6346,  6353,  6363,  6409,  6412,  6457,  6484,  6565,  6602,  6612,  6615,  6621,  6635,  6644,  6662,  6689
  6690,  6726,  6743,  6768,  6817,  6822,  6843,  6846,  6864,  6866,  6921,  6926,  6975,  6980,  6984,  7012
  7021,  7027,  7029,  7049,  7054,  7073,  7077,  7100,  7119,  7128,  7131,  7144,  7150,  7151,  7156,  7160
** ... 267 like lines cut
*Nset, nset=head1
    4,  173,  174,  175,  176,  177,  178,  179,  180,  181,  182,  183,  184,  185,  186,  187
  188,  189,  190,  191,  192, 5216, 5217, 5218, 5219, 5220, 5221, 5222, 5223, 5224, 5225, 5226
 5227, 5228, 5229, 5230, 5231, 5232
*Elset, elset=head1
    24,    94,   110,   672,   697,   822,  1189,  1202,  1306,  1575,  1596,  1801,  2268,  2390,  4406, 11535
 12098, 12282, 13497, 13502, 16267, 17117, 22258, 22269, 24502, 24850, 25765, 25931, 25934, 25937, 26623, 26647
 26658, 26922, 27602, 29377, 29677, 29718, 29819, 29836, 29852, 29944, 29945, 29961, 29982, 29996, 30032, 30049
 30094, 30121, 30122, 30142, 32984
*Nset, nset=bottom1
    3,  103,  104,  105,  106,  107,  108,  109,  110,  111,  112,  113,  114,  115,  116,  117
  118,  119,  120,  121,  122, 2982, 2983, 2984, 2985, 2986, 2987, 2988, 2989, 2990, 2991, 2992
 2993, 2994, 2995, 2996
*Elset, elset=bottom1
  6867,  7133,  7336,  7800,  7975,  8015,  8035,  8230,  8311,  8333,  8374,  8503,  8531,  8595,  8597,  9074
 12959, 15602, 19075, 19228, 19439, 20814, 21641, 21784, 22112, 22168, 22175, 22185, 22609, 22610, 24529, 25021
 25120, 25980, 25984, 26027, 26034, 26049, 26050, 26061, 26096, 26102, 26104, 26119, 26121, 26128, 26159, 26161
 28971,
*Nset, nset=lateral0
    1,    2,    5,    6,    7,    8,    9,   10,   11,   12,   13,   14,   15,   16,   17,   18
   19,   20,   21,   22,   23,   24,   25,   26,   27,   28,   29,   30,   31,   32,   33,   34
   35,   36,   37,   38,   39,   40,   41,   42,   43,   44,   45,   46,   47,   48,   49,   50
   51,   52,   53,   54,   55,   56,   57,   58,   59,   60,   61,   62,   63,   64,   65,   66
   67,   68,   69,   70,   71,   72,   73,   74,   75,   76,   77,   78,   79,   80,   81,   82
   83,   84,   85,   86,   87,   88,   89,   90,   91,   92,   93,   94,   95,   96,   97,   98
   99,  100,  101,  102,  235,  236,  237,  238,  239,  240,  241,  242,  243,  244,  245,  246
  247,  248,  249,  250,  251,  252,  253,  254,  255,  256,  257,  258,  259,  260,  261,  262
  263,  264,  265,  266,  267,  268,  269,  270,  271,  272,  273,  274,  275,  276,  277,  278
  279,  280,  281,  282,  283,  284,  285,  286,  287,  288,  289,  290,  291,  292,  293,  294
  295,  296,  297,  298,  299,  300,  301,  302,  303,  304,  305,  306,  307,  308,  309,  310
  311,  312,  313,  314,  315,  316,  317,  318,  319,  320,  321,  322,  323,  324,  325,  326
  327,  328,  329,  330,  331,  332,  333,  334,  335,  336,  337,  338,  339,  340,  341,  342
  343,  344,  345,  346,  347,  348,  349,  350,  351,  352,  353,  354,  355,  356,  357,  358
  359,  360,  361,  362,  363,  364,  365,  366,  367,  368,  369,  370,  371,  372,  373,  374
  375,  376,  377,  378,  379,  380,  381,  382,  383,  384,  385,  386,  387,  388,  389,  390
  391,  392,  393,  394,  395,  396,  397,  398,  399,  400,  401,  402,  403,  404,  405,  406
  407,  408,  409,  410,  411,  412,  413,  414,  415,  416,  417,  418,  419,  420,  421,  422
  423,  424,  425,  426,  427,  428,  429,  430,  431,  432,  433,  434,  435,  436,  437,  438
  439,  440,  441,  442,  443,  444,  445,  446,  447,  448,  449,  450,  451,  452,  453,  454
** ... 156 like lines cut
*Elset, elset=lateral0
     4,    30,    53,    54,    61,    77,   121,   126,   140,   158,   159,   160,   217,   221,   234,   239
   255,   267,   322,   369,   383,   389,   394,   420,   433,   452,   453,   457,   482,   508,   564,   584
   596,   601,   605,   624,   723,   771,   823,   824,   839,   925,   984,  1081,  1125,  1135,  1244,  1247
  1279,  1282,  1284,  1334,  1378,  1399,  1464,  1470,  1518,  1538,  1570,  1585,  1603,  1608,  1742,  1749
  1770,  1849,  1943,  1978,  1982,  2054,  2059,  2079,  2166,  2196,  2213,  2225,  2241,  2277,  2285,  2289
  2405,  2427,  2435,  2502,  2548,  2549,  2557,  2560,  2606,  2642,  2658,  2696,  2709,  2710,  2842,  2862
  2878,  2924,  2989,  3047,  3070,  3099,  3119,  3139,  3197,  3212,  3284,  3327,  3383,  3484,  3502,  3512
  3522,  3683,  3743,  3808,  3810,  3815,  3878,  3884,  4027,  4071,  4192,  4200,  4272,  4284,  4287,  4395
  4427,  4429,  4431,  4444,  4458,  4464,  4504,  4596,  4751,  4776,  4782,  4795,  4805,  4838,  4848,  4854
  4882,  4896,  4898,  4904,  4919,  4978,  5019,  5032,  5056,  5059,  5066,  5168,  5175,  5202,  5245,  5272
  5326,  5435,  5465,  5515,  5595,  5627,  5635,  5660,  5661,  5698,  5768,  5778,  5790,  5793,  5833,  5880
  5929,  6014,  6015,  6047,  6133,  6145,  6155,  6212,  6233,  6317,  6350,  6373,  6480,  6500,  6505,  6537
  6549,  6554,  6560,  6561,  6580,  6581,  6584,  6588,  6609,  6616,  6624,  6630,  6637,  6669,  6671,  6672
  6673,  6675,  6676,  6678,  6680,  6687,  6697,  6701,  6704,  6705,  6706,  6707,  6712,  6717,  6720,  6727
  6733,  6735,  6736,  6745,  6746,  6749,  6752,  6753,  6755,  6760,  6761,  6762,  6765,  6770,  6773,  6778
  6791,  6793,  6797,  6799,  6802,  6806,  6809,  6814,  6816,  6819,  6827,  6839,  6840,  6851,  6856,  6857
  6859,  6869,  6873,  6880,  6891,  6892,  6901,  6903,  6910,  6912,  6915,  6920,  6924,  6925,  6931,  6933
  6934,  6939,  6941,  6944,  6958,  6962,  6971,  6973,  6983,  6989,  6995,  6998,  7001,  7002,  7004,  7007
  7015,  7019,  7023,  7026,  7028,  7031,  7034,  7035,  7036,  7040,  7041,  7043,  7050,  7053,  7056,  7064
  7065,  7071,  7072,  7076,  7092,  7094,  7095,  7096,  7106,  7112,  7120,  7121,  7132,  7138,  7143,  7148
** ... 328 like lines cut
*Nset, nset=RubberSet, generate
    1,  8218,     1
*Elset, elset=RubberSet, generate
     1,  33612,      1
*Elset, elset=_surface_1_All_S3, internal
    24,    38,    94,   110,   352,   391,   449,   509,   541,   563,   672,   694,   697,   707,   731,   739
   765,   806,   822,   847,   887,   918,   974,  1067,  1087,  1156,  1163,  1189,  1202,  1270,  1306,  1313
  1356,  1368,  1420,  1501,  1511,  1526,  1561,  1575,  1596,  1609,  1743,  1765,  1797,  1801,  1819,  1824
  1830,  1872,  1921,  1923,  1944,  1951,  1970,  2042,  2050,  2057,  2102,  2138,  2171,  2217,  2223,  2239
  2252,  2263,  2268,  2288,  2319,  2328,  2332,  2390,  2406,  2449,  2489,  2504,  2530,  2578,  2588,  2685
  2715,  2720,  2723,  2784,  2797,  2831,  2853,  2923,  2937,  2949,  2970,  2972,  2990,  3002,  3014,  3069
  3170,  3190,  3228,  3256,  3261,  3275,  3290,  3354,  3358,  3385,  3387,  3395,  3406,  3439,  3482,  3486
  3515,  3561,  3611,  3715,  3728,  3813,  3859,  3894,  3915,  3917,  3944,  3945,  3996,  4025,  4037,  4080
  4090,  4101,  4134,  4140,  4158,  4225,  4292,  4298,  4328,  4363,  4390,  4406,  4463,  4495,  4496,  4544
  4545,  4640,  4641,  4643,  4644,  4652,  4672,  4674,  4675,  4686,  4716,  4771,  4781,  4784,  4874,  4875
  4888,  4899,  4939,  4981,  4984,  5003,  5023,  5049,  5067,  5091,  5117,  5130,  5152,  5179,  5181,  5205
  5232,  5252,  5274,  5280,  5305,  5341,  5345,  5393,  5411,  5418,  5483,  5533,  5542,  5583,  5593,  5644
  5674,  5676,  5686,  5717,  5722,  5736,  5763,  5772,  5797,  5798,  5800,  5822,  5853,  5888,  5900,  5932
  5966,  5976,  5985,  5987,  5999,  6033,  6098,  6116,  6151,  6200,  6253,  6263,  6294,  6409,  6412,  6565
  6602,  6612,  6615,  6621,  6635,  6644,  6662,  6689,  6690,  6768,  6817,  6822,  6843,  6846,  6864,  6866
  6867,  6921,  6926,  6975,  6980,  6984,  7021,  7027,  7029,  7054,  7077,  7100,  7119,  7128,  7133,  7150
  7151,  7156,  7160,  7182,  7187,  7191,  7214,  7242,  7266,  7272,  7283,  7286,  7329,  7335,  7336,  7386
  7394,  7410,  7415,  7417,  7433,  7436,  7467,  7472,  7475,  7490,  7498,  7500,  7504,  7506,  7512,  7517
  7567,  7617,  7623,  7629,  7651,  7664,  7672,  7676,  7714,  7747,  7780,  7793,  7800,  7821,  7841,  7934
  7938,  7975,  7983,  7995,  7999,  8021,  8035,  8060,  8079,  8081,  8117,  8129,  8133,  8140,  8141,  8179
** ... 239 like lines cut
*Elset, elset=_surface_1_All_S4, internal
    68,   146,   835,  1208,  1411,  1763,  2116,  2151,  2415,  2700,  2961,  3244,  3257,  3273,  3322,  3349
  3367,  3427,  3517,  3627,  3637,  3704,  3999,  4211,  4481,  4576,  4589,  4621,  4704,  5251,  5527,  5680
  5785,  5813,  6236,  6457,  6726,  7012,  7131,  7144,  7291,  7437,  7760,  7940,  8015,  8759,  9388,  9991
  9996, 10053, 10348, 10352, 10551, 10982, 11654, 11989, 12211, 12362, 12634, 12881, 12897, 13100, 13452, 13554
 13576, 13700, 13789, 13881, 13893, 13960, 14067, 14197, 14623, 14681, 14867, 15346, 15362, 15378, 15394, 15476
 15603, 15625, 15718, 15842, 15872, 15876, 15981, 16506, 16524, 16526, 16714, 16836, 16968, 17136, 17310, 17355
 17569, 17798, 17816, 18041, 18390, 18394, 18475, 18523, 18573, 18812, 19046, 19556, 19683, 19735, 19827, 19842
 19987, 20245, 20419, 20698, 20720, 20795, 21094, 21297, 21359, 21644, 21699, 21714, 21738, 21819, 21868, 21937
 22091, 22138, 22196, 22258, 22335, 22540, 22759, 22800, 22924, 23622, 23673, 23726, 23855, 23909, 23966, 23990
 24007, 24232, 24795, 24924, 25151, 25231, 25320, 25468, 25570, 25574, 25585, 25614, 25668, 25672, 25976, 26473
 26590, 26731, 27036, 27213, 27287, 27822, 27839, 27851, 28349, 28377, 28392, 28446, 28588, 28606, 28728, 28840
 28869, 29058, 29110, 29124, 29220, 29369, 29440, 29471, 29489, 29522, 29651, 29906, 29911, 29979, 30009, 30351
 30400, 30418, 30428, 30475, 30536, 30540, 30563, 30572, 30631, 30662, 30754, 30772, 30882, 31014, 31234, 31340
 31414, 31432, 31471, 31491, 31581, 31588, 31822, 31903, 32122, 32181, 32227, 32333, 32623, 32727, 32741, 32814
 33019, 33269
*Elset, elset=_surface_1_All_S2, internal
   276,   788,  1287,  2245,  2607,  3135,  3277,  3670,  3739,  3857,  4358,  5915,  7049,  7073,  8172,  8192
  8618,  8808,  8820,  9041,  9397,  9502,  9535,  9680,  9789, 10463, 10570, 10708, 10911, 11115, 11464, 11756
 12065, 13098, 13315, 13375, 13572, 13892, 13951, 14098, 14182, 14185, 14943, 15073, 15266, 15457, 15865, 15951
 16111, 16372, 16412, 16776, 16979, 17308, 17435, 17504, 17810, 17945, 17998, 18822, 18892, 18897, 19426, 19536
 19539, 20814, 21044, 21107, 21618, 21623, 21650, 21806, 22025, 22193, 22438, 22784, 22856, 23107, 23206, 23464
 23534, 23576, 23678, 23980, 24149, 24366, 24417, 24421, 24641, 24850, 24882, 24893, 25052, 25088, 25435, 26062
 26124, 26132, 26311, 26592, 26637, 26746, 27217, 27240, 27427, 27462, 27548, 27693, 27714, 27924, 27952, 28105
 28132, 28158, 28367, 28400, 28443, 28555, 28629, 28681, 28690, 28859, 28893, 29037, 29171, 29294, 29387, 29549
 29649, 29808, 29826, 29843, 29955, 29978, 29988, 30170, 30180, 30183, 30253, 30273, 30326, 30344, 30472, 30571
 30743, 30745, 30779, 30999, 31008, 31039, 31293, 31322, 31334, 31352, 31365, 31402, 31470, 31667, 31699, 31713
 31923, 31964, 32020, 32059, 32248, 32270, 32302, 32438, 32469, 32488, 32566, 32745, 32900, 32955, 33057, 33143
 33154, 33248, 33253, 33258, 33266, 33275, 33427, 33542, 33610
*Elset, elset=_surface_1_All_S1, internal
   303,   496,  1002,  1005,  1179,  2018,  2312,  2417,  2751,  2856,  3410,  4149,  4335,  4602,  4973,  5289
  5532,  5663,  6094,  6346,  6353,  6363,  6484,  6743,  7333,  7678,  7991,  8415,  8479,  9522,  9585,  9866
 10026, 10185, 10373, 10846, 11196, 11697, 11720, 11803, 12002, 12126, 12187, 12704, 12912, 12981, 13998, 14015
 14187, 14237, 14254, 14749, 14857, 14921, 14933, 15254, 15488, 15942, 16105, 16560, 16766, 17042, 17100, 17147
 17903, 18048, 18648, 18699, 18805, 19139, 19318, 19621, 19655, 19730, 20331, 20895, 20931, 21118, 21731, 22122
 22901, 23605, 23647, 23738, 24048, 24105, 24727, 24923, 24986, 25096, 25099, 25353, 25355, 25387, 25493, 25605
 26102, 26696, 26744, 27200, 27338, 27450, 27516, 27615, 27797, 27799, 27977, 28082, 28731, 28921, 29034, 29352
 29450, 29551, 29596, 29662, 29722, 30042, 30333, 30416, 30768, 31069, 31165, 31294, 31318, 31623, 31874, 32255
 32840, 32895, 32993, 33270, 33398
*Surface, type=ELEMENT, name=surface_1_All
_surface_1_All_S3, S3
_surface_1_All_S4, S4
_surface_1_All_S2, S2
_surface_1_All_S1, S1
*Elset, elset=_surface_0_All_S3, internal
    30,    53,    54,    77,    79,   126,   159,   160,   217,   247,   248,   322,   369,   420,   433,   452
   453,   508,   592,   605,   688,   723,   771,   823,   824,   839,   925,   984,  1081,  1135,  1284,  1399
  1570,  1585,  1603,  1727,  1742,  1849,  2054,  2059,  2196,  2205,  2372,  2405,  2427,  2548,  2557,  2560
  2642,  2658,  2678,  2842,  2878,  2924,  2989,  3047,  3070,  3139,  3197,  3212,  3383,  3484,  3792,  3808
  3815,  3878,  4192,  4200,  4429,  4431,  4444,  4457,  4458,  4464,  4795,  4805,  4882,  4896,  4898,  4904
  5019,  5056,  5168,  5175,  5245,  5272,  5326,  5349,  5465,  5515,  5627,  5635,  5660,  5661,  5880,  6014
  6015,  6155,  6233,  6317,  6350,  6373,  6480,  6505,  6549,  6554,  6560,  6561,  6580,  6581,  6584,  6588
  6609,  6616,  6624,  6630,  6637,  6669,  6671,  6672,  6673,  6675,  6676,  6678,  6680,  6687,  6697,  6701
  6704,  6705,  6706,  6707,  6712,  6717,  6720,  6727,  6735,  6736,  6746,  6749,  6752,  6753,  6760,  6761
  6762,  6765,  6770,  6773,  6778,  6791,  6793,  6797,  6799,  6802,  6806,  6809,  6813,  6814,  6816,  6819
  6827,  6839,  6840,  6851,  6853,  6857,  6859,  6869,  6880,  6891,  6892,  6901,  6903,  6910,  6912,  6915
  6920,  6924,  6925,  6931,  6933,  6934,  6939,  6941,  6944,  6958,  6962,  6971,  6973,  6983,  6989,  6995
  6998,  7001,  7002,  7004,  7007,  7015,  7019,  7026,  7028,  7031,  7035,  7036,  7040,  7043,  7050,  7053
  7061,  7064,  7065,  7071,  7072,  7081,  7088,  7092,  7094,  7095,  7096,  7106,  7120,  7121,  7138,  7143
  7148,  7153,  7162,  7166,  7172,  7174,  7177,  7193,  7194,  7199,  7201,  7206,  7213,  7217,  7218,  7221
  7224,  7225,  7228,  7233,  7239,  7241,  7243,  7247,  7248,  7249,  7250,  7259,  7261,  7287,  7294,  7302
  7304,  7308,  7310,  7312,  7313,  7314,  7315,  7317,  7324,  7325,  7327,  7337,  7339,  7340,  7341,  7343
  7350,  7351,  7354,  7355,  7357,  7361,  7365,  7378,  7380,  7384,  7390,  7391,  7397,  7401,  7405,  7407
  7413,  7416,  7419,  7439,  7444,  7447,  7451,  7453,  7457,  7458,  7461,  7471,  7477,  7478,  7479,  7482
  7483,  7485,  7487,  7493,  7495,  7496,  7497,  7499,  7501,  7503,  7511,  7514,  7515,  7516,  7518,  7526
** ... 302 like lines cut
*Elset, elset=_surface_0_All_S1, internal
     4,    61,   457,   564,  1334,  1378,  1608,  1770,  1943,  2079,  2166,  2225,  2285,  2289,  2435,  2549
  2862,  3099,  3119,  3284,  3512,  4071,  4287,  4504,  4596,  4782,  4848,  4854,  4919,  5059,  5066,  5790
  5833,  5929,  6212,  6537,  6755,  7034,  7076,  7236,  7260,  7684,  7790,  7878,  8008,  8216,  8283,  8393
  8433,  8600,  8641,  8975,  9250,  9398,  9408,  9941, 10464, 10737, 11653, 11671, 11801, 12017, 12235, 12275
 12286, 12480, 12741, 12777, 12967, 13018, 13166, 13250, 13341, 13343, 13583, 13684, 13732, 14177, 14260, 14408
 14829, 14910, 15205, 15580, 15731, 15827, 15945, 16228, 16344, 16627, 16879, 16891, 17737, 17916, 18177, 18268
 18415, 18504, 18507, 19087, 19328, 19379, 19661, 19953, 20376, 20444, 20518, 20525, 20652, 21011, 21409, 21431
 21438, 22104, 22480, 22494, 22566, 22779, 22796, 23082, 23138, 23312, 23702, 23816, 23863, 23876, 24044, 24887
 24980, 25028, 25074, 25263, 25300, 25764, 26373, 27292, 27784, 28033, 28426, 29079, 29224, 29426, 29878, 30034
 30270, 30805, 31501, 31649, 31825, 31994, 32373, 32884, 33399
*Elset, elset=_surface_0_All_S2, internal
   239,  2606,  3810,  3884,  5698,  7112,  7121,  7132,  7161,  7414,  7519,  7522,  7524,  7708,  7865,  7926
  7932,  7984,  8094,  8143,  8195,  8217,  8281,  8366,  8378,  8392,  8413,  8417,  8448,  8461,  8532,  8627
  8832,  9069,  9330,  9458,  9990, 10345, 10488, 10554, 10660, 10774, 10955, 10964, 11069, 11111, 11156, 11523
 11760, 11773, 12015, 12136, 12150, 12220, 12403, 12611, 12688, 12703, 12715, 12863, 13017, 13044, 13115, 13191
 13270, 13552, 13553, 13595, 13780, 13879, 14443, 14545, 14548, 14602, 14762, 14773, 14825, 14894, 14906, 14918
 15477, 15495, 15521, 15631, 15767, 15786, 16131, 16205, 16377, 16481, 16564, 16777, 16799, 16927, 17212, 17248
 17279, 17396, 17451, 17505, 17690, 17910, 18000, 18106, 18142, 18166, 18212, 18464, 18646, 18713, 19038, 19177
 19191, 19272, 19599, 19624, 19660, 19674, 19878, 19934, 19975, 20040, 20102, 20242, 20260, 20289, 20318, 20437
 20485, 20869, 20920, 21106, 21216, 21294, 21379, 21503, 21645, 21855, 22018, 22388, 22587, 22601, 22611, 22667
 22735, 22826, 22881, 22914, 22921, 22936, 23021, 23400, 23435, 23436, 23603, 23703, 23834, 23937, 24119, 24141
 24153, 24325, 24499, 24617, 24707, 25033, 25138, 25195, 25324, 25462, 25497, 25776, 25778, 25780, 25802, 25823
 26149, 26209, 26272, 26451, 27149, 27263, 27357, 27509, 27800, 27895, 27974, 28045, 28101, 28110, 28522, 29066
 29141, 29239, 29404, 29523, 29604, 29699, 29815, 30084, 30378, 30608, 30781, 30788, 32001, 32129, 32532
*Elset, elset=_surface_0_All_S4, internal
   121,   140,   158,   221,   234,   255,   267,   383,   389,   394,   482,   584,   596,   601,   624,  1125
  1244,  1247,  1279,  1282,  1464,  1470,  1518,  1538,  1749,  1978,  1982,  2213,  2241,  2277,  2502,  2696
  2709,  2710,  3212,  3327,  3502,  3522,  3683,  3743,  4027,  4272,  4284,  4395,  4427,  4751,  4776,  4838
  4978,  5032,  5202,  5435,  5595,  5768,  5778,  5793,  6047,  6133,  6145,  6500,  6733,  6745,  6856,  6873
  7023,  7041,  7056,  7157,  7196,  7276,  7278,  7473,  7692,  7894,  7972,  8013,  8267,  8380,  8388,  8395
  8686,  8836,  8845,  8851,  8906,  8977,  9052,  9229,  9323,  9327,  9462,  9599,  9688,  9907,  9946, 10106
 10175, 10216, 10226, 10310, 10328, 10372, 10374, 10770, 10967, 11267, 11397, 11465, 11549, 11740, 11821, 11969
 11971, 12107, 12111, 12151, 12279, 12471, 12608, 12635, 12666, 12671, 12919, 13135, 13329, 13386, 13395, 13443
 13774, 13931, 14090, 14097, 14183, 14310, 14359, 14414, 14503, 14657, 14892, 15039, 15101, 15172, 15206, 15212
 15290, 15534, 15596, 15673, 15765, 15947, 16053, 16077, 16200, 16201, 16395, 16648, 16775, 16861, 17089, 17140
 17218, 17443, 17776, 17822, 17940, 18151, 18197, 18291, 18297, 18785, 18832, 18885, 18972, 19080, 19137, 19436
 19490, 19552, 19830, 19909, 19961, 20045, 20064, 20073, 20334, 20367, 20386, 20388, 20539, 20826, 20858, 20950
 21092, 21102, 21160, 21228, 21268, 21367, 21392, 21593, 21611, 21707, 21928, 22009, 22164, 22189, 22233, 22296
 22297, 22355, 22566, 22698, 22860, 23117, 23231, 23331, 23457, 23565, 23650, 23789, 24027, 24234, 24492, 24503
 24751, 24933, 25020, 25026, 25193, 25313, 25372, 25452, 25759, 25767, 25777, 25784, 25813, 25852, 26395, 26471
 26675, 26689, 27521, 27549, 27651, 27661, 27927, 27981, 28425, 28607, 28757, 28773, 28881, 28923, 29101, 29176
 29226, 30244, 30356, 30483, 30656, 31004, 31411, 31429, 31513, 31978, 32079, 32484, 32715, 32719, 32793, 32800
 32926, 33043, 33234, 33323, 33511
*Surface, type=ELEMENT, name=surface_0_All
_surface_0_All_S3, S3
_surface_0_All_S1, S1
_surface_0_All_S2, S2
_surface_0_All_S4, S4
** Section: Rubber
*Solid Section, elset=RubberSet, material=Rubber
,
*End Part
**  
**
** ASSEMBLY
**
*Assembly, name=Assembly
**  
*Instance, name=final_model-1, part=final_model
*End Instance
**  
*Node
      1,           8.,           0.,          80.
*Nset, nset=RP1
 1,
*Nset, nset=_PickedSet5, internal, instance=final_model-1
    2,   79,   80,   81,   82,   83,   84,   85,   86,   87,   88,   89,   90,   91,   92,   93
   94,   95,   96,   97,   98,   99,  100,  101,  102, 2941, 2942, 2943, 2944, 2945, 2946, 2947
 2948, 2949, 2950, 2951, 2952, 2953, 2954, 2955, 2956, 2957, 2958, 2959, 2960, 2961, 2962, 2963
 2964, 2965, 2966, 2967, 2968, 2969, 2970, 2971, 2972, 2973, 2974, 2975, 2976, 2977, 2978, 2979
 2980, 2981
*Elset, elset=_PickedSet5, internal, instance=final_model-1
    79,   247,   248,   592,   688,  1727,  3792,  7607,  8433,  8812, 10450, 10548, 11491, 11523, 11531, 11560
 11586, 11618, 11641, 11680, 11906, 11950, 11957, 11969, 11971, 12015, 12017, 12032, 12039, 12046, 12058, 12220
 12235, 12279, 12286, 14683, 16265, 16932, 16934, 18083, 20570, 22388, 22666, 22700, 22702, 23250, 23558, 23565
 24342, 24503, 25483, 25758, 25764, 25767, 25776, 25777, 25778, 25782, 25786, 25797, 25802, 25807, 25826, 25830
 25833, 25839, 25848, 25851, 25852, 25871, 25884, 25891, 25898, 25900, 25904, 25923, 25926, 25927, 25938, 25951
 25953, 25956, 25957, 26931, 27583, 29444, 29733, 29812, 29813, 29830, 29832, 29833, 29834, 29837, 29858, 29867
 29885, 29939, 30078, 30096, 30097, 30100, 30115, 30116, 30118
*Nset, nset=_PickedSet6, internal
 1,
*Elset, elset=_Surf-2_S1, internal, instance=final_model-1
     4,    61,   457,   564,  1334,  1378,  1608,  1770,  1943,  2079,  2166,  2225,  2285,  2289,  2435,  2549
  2862,  3099,  3119,  3284,  3512,  4071,  4287,  4504,  4596,  4782,  4848,  4854,  4919,  5059,  5066,  5790
  5833,  5929,  6212,  6537,  6755,  7034,  7076,  7236,  7260,  7684,  7790,  7878,  8008,  8216,  8283,  8393
  8600,  8641,  8975,  9250,  9398,  9408,  9941, 10464, 10737, 11653, 11671, 11801, 12275, 12480, 12741, 12777
 12967, 13018, 13166, 13250, 13341, 13343, 13583, 13684, 13732, 14177, 14260, 14408, 14829, 14910, 15205, 15580
 15731, 15827, 15945, 16228, 16344, 16627, 16879, 16891, 17737, 17916, 18177, 18268, 18415, 18504, 18507, 19087
 19328, 19379, 19661, 20376, 20444, 20518, 20525, 20652, 21011, 21409, 21431, 21438, 22104, 22480, 22494, 22779
 22796, 23082, 23138, 23312, 23702, 23816, 23863, 23876, 24044, 24887, 24980, 25028, 25074, 25263, 25300, 26373
 27292, 27784, 28033, 28426, 29079, 29224, 29426, 29878, 30034, 30270, 30805, 31501, 31649, 31825, 31994, 32373
 32884, 33399
*Elset, elset=_Surf-2_S3, internal, instance=final_model-1
    30,    53,    54,    77,   126,   159,   160,   217,   322,   369,   420,   433,   452,   453,   508,   605
   723,   771,   823,   824,   839,   925,   984,  1081,  1135,  1284,  1399,  1570,  1585,  1603,  1742,  1849
  2054,  2059,  2196,  2405,  2427,  2548,  2557,  2560,  2642,  2658,  2842,  2878,  2924,  2989,  3047,  3070
  3139,  3197,  3383,  3484,  3808,  3815,  3878,  4192,  4200,  4429,  4431,  4444,  4458,  4464,  4795,  4805
  4882,  4896,  4898,  4904,  5019,  5056,  5168,  5175,  5245,  5272,  5326,  5465,  5515,  5627,  5635,  5660
  5661,  5880,  6014,  6015,  6155,  6233,  6317,  6350,  6373,  6480,  6505,  6549,  6554,  6560,  6561,  6580
  6581,  6584,  6588,  6609,  6616,  6624,  6630,  6637,  6669,  6671,  6672,  6673,  6675,  6676,  6678,  6680
  6687,  6697,  6701,  6704,  6705,  6706,  6707,  6712,  6717,  6720,  6727,  6735,  6736,  6746,  6749,  6752
  6753,  6760,  6761,  6762,  6765,  6770,  6773,  6778,  6791,  6793,  6797,  6799,  6802,  6806,  6809,  6814
  6816,  6819,  6827,  6839,  6840,  6851,  6857,  6859,  6869,  6880,  6891,  6892,  6901,  6903,  6910,  6912
  6915,  6920,  6924,  6925,  6931,  6933,  6934,  6939,  6941,  6944,  6958,  6962,  6971,  6973,  6983,  6989
  6995,  6998,  7001,  7002,  7004,  7007,  7015,  7019,  7026,  7028,  7031,  7035,  7036,  7040,  7043,  7050
  7053,  7064,  7065,  7071,  7072,  7092,  7094,  7095,  7096,  7106,  7120,  7138,  7143,  7148,  7153,  7162
  7166,  7172,  7174,  7177,  7193,  7194,  7199,  7201,  7206,  7213,  7217,  7218,  7221,  7224,  7225,  7228
  7233,  7239,  7241,  7243,  7247,  7248,  7249,  7250,  7259,  7261,  7287,  7294,  7302,  7304,  7308,  7310
  7312,  7313,  7314,  7315,  7317,  7324,  7325,  7327,  7339,  7340,  7341,  7343,  7350,  7351,  7354,  7355
  7357,  7361,  7365,  7378,  7380,  7384,  7390,  7391,  7397,  7401,  7405,  7407,  7413,  7416,  7419,  7439
  7444,  7447,  7451,  7453,  7457,  7458,  7461,  7471,  7477,  7478,  7479,  7482,  7483,  7485,  7487,  7493
  7495,  7496,  7497,  7499,  7501,  7503,  7511,  7514,  7515,  7516,  7518,  7526,  7527,  7529,  7534,  7536
  7540,  7547,  7554,  7558,  7562,  7564,  7566,  7569,  7571,  7580,  7584,  7585,  7588,  7589,  7590,  7596
** ... 290 like lines cut
*Elset, elset=_Surf-2_S4, internal, instance=final_model-1
   121,   140,   158,   221,   234,   255,   267,   383,   389,   394,   482,   584,   596,   601,   624,  1125
  1244,  1247,  1279,  1282,  1464,  1470,  1518,  1538,  1749,  1978,  1982,  2213,  2241,  2277,  2502,  2696
  2709,  2710,  3212,  3327,  3502,  3522,  3683,  3743,  4027,  4272,  4284,  4395,  4427,  4751,  4776,  4838
  4978,  5032,  5202,  5435,  5595,  5768,  5778,  5793,  6047,  6133,  6145,  6500,  6733,  6745,  6856,  6873
  7023,  7041,  7056,  7157,  7196,  7276,  7278,  7473,  7692,  7894,  8013,  8267,  8380,  8388,  8686,  8836
  8845,  8851,  8906,  8977,  9052,  9229,  9323,  9327,  9462,  9599,  9688,  9907,  9946, 10106, 10175, 10216
 10226, 10310, 10328, 10372, 10374, 10770, 10967, 11267, 11397, 11465, 11549, 11740, 11821, 12107, 12111, 12151
 12471, 12608, 12635, 12666, 12671, 12919, 13135, 13329, 13386, 13395, 13443, 13774, 13931, 14090, 14097, 14183
 14310, 14359, 14414, 14503, 14657, 14892, 15039, 15101, 15172, 15206, 15212, 15290, 15534, 15673, 15765, 15947
 16053, 16077, 16200, 16201, 16395, 16648, 16775, 16861, 17089, 17140, 17218, 17443, 17822, 17940, 18151, 18197
 18291, 18297, 18785, 18832, 18885, 18972, 19080, 19137, 19436, 19490, 19552, 19830, 19909, 19961, 20045, 20064
 20073, 20334, 20367, 20386, 20388, 20539, 20826, 20858, 20950, 21092, 21102, 21160, 21228, 21268, 21367, 21392
 21593, 21611, 21707, 21928, 22009, 22164, 22189, 22233, 22296, 22297, 22355, 22566, 22698, 22860, 23117, 23231
 23331, 23457, 23650, 23789, 24027, 24234, 24492, 24751, 24933, 25020, 25026, 25193, 25313, 25372, 25452, 25759
 25784, 25813, 26395, 26471, 26675, 26689, 27521, 27549, 27651, 27661, 27927, 27981, 28425, 28607, 28757, 28773
 28881, 28923, 29101, 29176, 29226, 30244, 30356, 30483, 30656, 31004, 31411, 31429, 31513, 31978, 32079, 32484
 32715, 32719, 32793, 32800, 32926, 33043, 33234, 33323, 33511
*Elset, elset=_Surf-2_S2, internal, instance=final_model-1
   239,  2606,  3810,  3884,  5698,  7112,  7121,  7132,  7161,  7414,  7519,  7522,  7524,  7708,  7865,  7926
  8094,  8143,  8195,  8217,  8281,  8378,  8392,  8413,  8417,  8448,  8461,  8532,  8627,  8832,  9069,  9330
  9458,  9990, 10345, 10488, 10554, 10660, 10774, 10955, 10964, 11069, 11111, 11156, 11760, 11773, 12136, 12150
 12403, 12611, 12688, 12703, 12715, 12863, 13017, 13044, 13115, 13191, 13270, 13552, 13553, 13595, 13780, 13879
 14443, 14545, 14548, 14602, 14762, 14773, 14825, 14894, 14906, 14918, 15477, 15495, 15521, 15631, 15767, 15786
 16131, 16205, 16377, 16481, 16564, 16777, 16799, 16927, 17212, 17248, 17279, 17396, 17451, 17505, 17690, 17910
 18000, 18106, 18142, 18166, 18212, 18464, 18646, 18713, 19038, 19177, 19191, 19272, 19599, 19624, 19660, 19674
 19878, 19934, 19975, 20040, 20102, 20242, 20260, 20289, 20318, 20437, 20485, 20869, 20920, 21106, 21216, 21294
 21379, 21503, 21645, 21855, 22018, 22587, 22601, 22611, 22667, 22735, 22826, 22881, 22914, 22921, 22936, 23021
 23400, 23435, 23436, 23603, 23703, 23834, 23937, 24119, 24141, 24153, 24325, 24499, 24617, 24707, 25033, 25138
 25195, 25324, 25462, 25497, 25780, 25823, 26149, 26209, 26272, 26451, 27149, 27263, 27357, 27509, 27800, 27895
 27974, 28045, 28101, 28110, 28522, 29066, 29141, 29239, 29404, 29523, 29604, 29699, 29815, 30084, 30378, 30608
 30781, 30788, 32001, 32129, 32532
*Surface, type=ELEMENT, name=Surf-2
_Surf-2_S1, S1
_Surf-2_S3, S3
_Surf-2_S4, S4
_Surf-2_S2, S2
*Surface, type=NODE, name=_PickedSet5_CNS_, internal
_PickedSet5, 1.
** Constraint: Constraint-1
*Coupling, constraint name=Constraint-1, ref node=_PickedSet6, surface=_PickedSet5_CNS_
*Kinematic
*End Assembly
** 
** MATERIALS
** 
*Material, name=Rubber
*Density
 1.08e-09,
*Hyperelastic, neo hooke
 0.240803, 0.41667
*Material, name=Skeleton
*Density
 1.1e-09,
*Elastic
100000., 0.45
** 
** INTERACTION PROPERTIES
** 
*Surface Interaction, name=IntProp-1
1.,
*Surface Behavior, pressure-overclosure=HARD
*Time Points, name=TimePoints-1, GENERATE
0., 1., 0.05
** 
** BOUNDARY CONDITIONS
** 
** Name: BC-1 Type: Displacement/Rotation
*Boundary
final_model-1.surface_0_Bottom, 1, 1
final_model-1.surface_0_Bottom, 2, 2
final_model-1.surface_0_Bottom, 3, 3
final_model-1.surface_0_Bottom, 4, 4
final_model-1.surface_0_Bottom, 5, 5
final_model-1.surface_0_Bottom, 6, 6
** ----------------------------------------------------------------
** 
** STEP: Step-Pressure
** 
*Step, name=Step-Pressure, nlgeom=YES
*Static
1., 1., 1e-05, 1.
** 
** LOADS
** 
** Name: Load-1   Type: Pressure
*Dsload
final_model-1.surface_1_All, P, 0.06
** 
** OUTPUT REQUESTS
** 
*Restart, write, frequency=0
** 
** FIELD OUTPUT: F-Output-1
** 
*Output, field
*Node Output
CF, RF, RM, RT, TF, U, VF
*Element Output, directions=YES
ALPHA, ALPHAN, BF, CENTMAG, CENTRIFMAG, CORIOMAG, CS11, CTSHR, E, EE, EEQUT, ELEDEN, ELEN, ENER, ER, ESF1
GRAV, HP, IE, LE, MISES, MISESMAX, MISESONLY, NE, NFORC, NFORCSO, P, PE, PEEQ, PEEQMAX, PEEQT, PEMAG
PEQC, PRESSONLY, PS, ROTAMAG, S, SALPHA, SE, SEE, SEP, SEPE, SEQUT, SF, SPE, SQEQ, SSAVG, TE
TEEQ, TEVOL, THE, TRIAX, TRNOR, TRSHR, TSHR, VE, VEEQ, VS, YIELDPOT
** 
** HISTORY OUTPUT: H-Output-1
** 
*Output, history, variable=PRESELECT
*End Step
