*Heading
** Job name: C3D10 Model name: Model-1
** Generated by: Abaqus/CAE 2021
*Preprint, echo=NO, model=NO, history=NO, contact=NO
**
** PARTS
**
*Part, name=Part-1
*Node
      1,         -20.,         -20.,         100.
      2,         -20.,          20.,         100.
      3,         -20.,          20.,           0.
      4,         -20.,         -20.,           0.
      5,          20.,          20.,         100.
      6,          20.,          20.,           0.
      7,          20.,         -20.,           0.
      8,          20.,         -20.,         100.
      9,         -20.,         -15.,         100.
     10,         -20.,         -10.,         100.
     11,         -20.,          -5.,         100.
     12,         -20.,           0.,         100.
     13,         -20.,           5.,         100.
     14,         -20.,          10.,         100.
     15,         -20.,          15.,         100.
     16,         -20.,          20.,          95.
     17,         -20.,          20.,          90.
     18,         -20.,          20.,          85.
     19,         -20.,          20.,          80.
     20,         -20.,          20.,          75.
** ... 13235 like lines cut
*Element, type=C3D10
   1,   771,   772,   773,   774,  1873,  1872,  1871,  1875,  1874,  1876
   2,   771,   772,   775,   776,  1873,  1878,  1877,  1880,  1879,  1881
   3,   771,   772,   776,   777,  1873,  1879,  1880,  1883,  1882,  1884
   4,   771,   778,   779,   780,  1887,  1886,  1885,  1889,  1888,  1890
   5,   771,   781,   778,   780,  1892,  1891,  1887,  1889,  1893,  1888
   6,   782,   783,   784,   785,  1896,  1895,  1894,  1898,  1897,  1899
   7,   782,   786,   787,   788,  1902,  1901,  1900,  1904,  1903,  1905
   8,   782,   778,   789,   783,  1908,  1907,  1906,  1896,  1909,  1910
   9,   782,   784,   786,   790,  1894,  1911,  1902,  1913,  1912,  1914
  10,   791,   792,   793,   794,  1917,  1916,  1915,  1919,  1918,  1920
  11,   791,   793,   795,   796,  1915,  1922,  1921,  1924,  1923,  1925
  12,   791,   797,   798,   799,  1928,  1927,  1926,  1930,  1929,  1931
  13,   800,   791,   799,   794,  1933,  1930,  1932,  1934,  1919,  1935
  14,   791,   801,   793,   796,  1937,  1936,  1915,  1924,  1938,  1923
  15,   801,   802,   803,   791,  1941,  1940,  1939,  1937,  1942,  1943
  16,   804,   801,   802,   803,  1945,  1941,  1944,  1946,  1939,  1940
  17,   802,   801,   805,   791,  1941,  1948,  1947,  1942,  1937,  1949
  18,   806,   807,   808,   809,  1952,  1951,  1950,  1954,  1953,  1955
  19,   791,   793,   798,   797,  1915,  1956,  1926,  1928,  1957,  1927
  20,   772,   774,   775,   810,  1874,  1958,  1878,  1960,  1959,  1961
** ... 8728 like lines cut
*Nset, nset=AllSet, generate
     1,  13255,      1
*Elset, elset=AllSet, generate
    1,  8748,     1
** Section: Section-1
*Solid Section, elset=AllSet, material=Material-1
,
*End Part
**  
**
** ASSEMBLY
**
*Assembly, name=Assembly
**  
*Instance, name=Part-1-1, part=Part-1
*End Instance
**  
*Node
      1,           0.,           0.,         100.
*Nset, nset=RP
 1,
*Nset, nset=bottom, instance=Part-1-1
     3,     4,     6,     7,    35,    36,    37,    38,    39,    40,    41,    87,    88,    89,    90,    91
    92,    93,    94,    95,    96,    97,    98,    99,   100,   101,   102,   103,   104,   105,   106,   107
   407,   408,   409,   410,   411,   412,   413,   414,   415,   416,   417,   418,   419,   420,   421,   422
   423,   424,   425,   426,   427,   428,   429,   430,   431,   432,   433,   434,   435,   436,   437,   438
   439,   440,   441,   442,   443,   444,   445,   446,   447,   448,   449,   450,   451,   452,   453,   454
   455,  2712,  3009,  3155,  3921,  3923,  3925,  4019,  5155,  5211,  5240,  5460,  6123,  6138,  6253,  6255
  6257,  6312,  6320,  6322,  6324,  7489,  7530,  8505,  8528,  8530,  8531,  8600,  8602,  8710,  8712,  8714
  8783,  8795,  8829,  8861,  8863,  8865,  8880,  8882,  8884,  8888,  8889,  8891,  8921,  8923,  8925,  8945
  8947,  8949,  8956,  8957,  8968,  8970,  8971,  8978,  8980,  8981,  8989,  8990,  9168,  9751, 10105, 10212
 10214, 10265, 10267, 10268, 10283, 10284, 10286, 10308, 10309, 10471, 10473, 10475, 10479, 10481, 10482, 10504
 10516, 10518, 10520, 10522, 10539, 10547, 10555, 10556, 10573, 10574, 10576, 10580, 10581, 10592, 10604, 10625
 10626, 10627, 10644, 10645, 10648, 10657, 10659, 10660, 10661, 10662, 10664, 10666, 10674, 10679, 10702, 10704
 10705, 10710, 10711, 10719, 10721, 10741, 10742, 10762, 10763, 10779, 10781, 10783, 10785, 10787, 10795, 10797
 10798, 10801, 10802, 10806, 10807, 10810, 10812, 10823, 10836, 10837, 10839, 10842, 10857, 10861, 10862, 10868
 10883, 10884, 10909, 10910, 10919, 10921, 10928, 10939, 10941, 10944, 10945, 10947, 10949, 10950, 10954, 10955
 10957, 10958, 10977, 10984, 10986, 10989, 10992, 10996, 11002, 11005, 11007, 11008, 11014, 11015, 11027, 11029
 11030, 11031, 11033, 11035, 11038, 11039, 11040, 11041, 11053, 11454, 11967, 11968, 12024, 12028, 12068, 12116
 12164, 12180, 12201, 12228, 12229, 12707, 12794, 12892, 12894, 12928, 12970, 12971, 12985, 12987, 13009, 13139
 13251,
*Elset, elset=bottom, instance=Part-1-1
  633, 1677, 1696, 2486, 2513, 2575, 2643, 2653, 2658, 2677, 2700, 2706, 2714, 2717, 2720, 3107
 3370, 3403, 3411, 3419, 3547, 3549, 3568, 3575, 3597, 3607, 3611, 3640, 3641, 3645, 3646, 3656
 3661, 3668, 3669, 3701, 3705, 3713, 3728, 3736, 3743, 3744, 3757, 3762, 3763, 3766, 3776, 3779
 3781, 3785, 3787, 3794, 3802, 3804, 3815, 3816, 3837, 3851, 3853, 3854, 3871, 3884, 3892, 3894
 3898, 3900, 3917, 3922, 3923, 3929, 3935, 3943, 3944, 3946, 3959, 3960, 3967, 3971, 3976, 3986
 4242, 4629, 4677, 4693, 4698, 4723, 4751, 4762, 4785, 4835, 4838, 4853, 4865, 4879, 4892, 4893
 5412, 5455, 5526, 5546, 5627, 5659, 5721, 5765, 5817, 5819, 5839, 5871, 5876, 5886, 5920, 5929
 5993, 5995, 6133, 6424, 6425, 6540, 6746, 6784, 6805, 6890, 7015, 8094, 8102, 8554, 8555, 8703
*Nset, nset=_PickedSet8, internal
 1,
*Elset, elset=_head_S3, internal, instance=Part-1-1
 1706, 1716, 1717, 1772, 1789, 1800, 1827, 1861, 1864, 1867, 1950, 1959, 2117, 2724, 2737, 2747
 2761, 2764, 2785, 2804, 2859, 2864, 2902, 3000, 3115, 4002, 4045, 4048, 4053, 4056, 4078, 4087
 4115, 4149, 4157, 4161, 4173, 4736, 4905, 4916, 4920, 4922, 4969, 4972, 4991, 4996, 5003, 5011
 5016, 5024, 5041, 5045, 5047, 5055, 5068, 5071, 5075, 5078, 5083, 5099, 5105, 5107, 5111, 5112
 5114, 5115, 5131, 5140, 5143, 5148, 5152, 5156, 5159, 5162, 5168, 5181, 5183, 5184, 5187, 5190
 5192, 5194, 5201, 5203, 5204, 5206, 5208, 5210, 5212, 5236, 5239, 5247, 5262, 5268, 5305, 5316
 5333, 5989, 6001, 6003, 6047, 6090, 6259, 6272, 6277, 6325, 6384, 6476, 6496, 6635, 6916, 7204
 7317, 7318, 7437, 7465, 7565, 7620, 7622, 7778, 8028, 8245, 8626, 8631
*Elset, elset=_head_S1, internal, instance=Part-1-1
 1924, 5226, 8571
*Elset, elset=_head_S2, internal, instance=Part-1-1
 5063,
*Surface, type=ELEMENT, name=head
_head_S3, S3
_head_S1, S1
_head_S2, S2
** Constraint: Constraint-1
*Coupling, constraint name=Constraint-1, ref node=RP, surface=head
*Kinematic
*End Assembly
** 
** MATERIALS
** 
*Material, name=Material-1
*Hyperelastic, neo hooke
 0.24, 0.4
** 
** BOUNDARY CONDITIONS
** 
** Name: BC-1 Type: Displacement/Rotation
*Boundary
bottom, 1, 1
bottom, 2, 2
bottom, 3, 3
bottom, 4, 4
bottom, 5, 5
bottom, 6, 6
** ----------------------------------------------------------------
** 
** STEP: Step-1
** 
*Step, name=Step-1, nlgeom=YES
*Static
1., 1., 1e-05, 1.
** 
** LOADS
** 
** Name: Load-1   Type: Concentrated force
*Cload
_PickedSet8, 1, 30.
** 
** OUTPUT REQUESTS
** 
*Restart, write, frequency=0
** 
** FIELD OUTPUT: F-Output-1
** 
*Output, field, variable=PRESELECT
** 
** HISTORY OUTPUT: H-Output-1
** 
*Output, history, variable=PRESELECT
*End Step
