*Heading
** Job name: C3D15 Model name: Model-1
** Generated by: Abaqus/CAE 2021
*Preprint, echo=NO, model=NO, history=NO, contact=NO
**
** PARTS
**
*Part, name=Part-1
*Node
      1,          20.,          20.,           0.
      2,         -20.,          20.,           0.
      3,          20.,         -20.,           0.
      4,         -20.,         -20.,           0.
      5,          15.,          20.,           0.
      6,          10.,          20.,           0.
      7,           5.,          20.,           0.
      8,           0.,          20.,           0.
      9,          -5.,          20.,           0.
     10,         -10.,          20.,           0.
     11,         -15.,          20.,           0.
     12,          20.,         -15.,           0.
     13,          20.,         -10.,           0.
     14,          20.,          -5.,           0.
     15,          20.,           0.,           0.
     16,          20.,           5.,           0.
     17,          20.,          10.,           0.
     18,          20.,          15.,           0.
     19,         -15.,         -20.,           0.
     20,         -10.,         -20.,           0.
** ... 8397 like lines cut
*Element, type=C3D15
   1,   11,   46,   49,   99,  134,  137, 1851, 1850, 1849, 1852, 1853, 1854, 1856, 1855, 1857
   2,   41,   21,   42,  129,  109,  130, 1860, 1859, 1858, 1861, 1862, 1863, 1865, 1864, 1866
   3,   18,    1,    5,  106,   89,   93, 1869, 1868, 1867, 1870, 1871, 1872, 1874, 1873, 1875
   4,   17,   18,   39,  105,  106,  127, 1878, 1877, 1876, 1879, 1880, 1881, 1882, 1874, 1883
   5,   38,   39,   50,  126,  127,  138, 1886, 1885, 1884, 1887, 1888, 1889, 1890, 1883, 1891
   6,    6,    7,   51,   94,   95,  139, 1894, 1893, 1892, 1895, 1896, 1897, 1899, 1898, 1900
   7,   33,    8,   34,  121,   96,  122, 1903, 1902, 1901, 1904, 1905, 1906, 1908, 1907, 1909
   8,   34,    9,   35,  122,   97,  123, 1912, 1911, 1910, 1913, 1914, 1915, 1909, 1916, 1917
   9,   27,   28,   57,  115,  116,  145, 1920, 1919, 1918, 1921, 1922, 1923, 1925, 1924, 1926
  10,   25,    3,   12,  113,   91,  100, 1929, 1928, 1927, 1930, 1931, 1932, 1934, 1933, 1935
  11,   24,   25,   45,  112,  113,  133, 1938, 1937, 1936, 1939, 1940, 1941, 1942, 1934, 1943
  12,   44,   45,   52,  132,  133,  140, 1946, 1945, 1944, 1947, 1948, 1949, 1950, 1943, 1951
  13,   13,   14,   53,  101,  102,  141, 1954, 1953, 1952, 1955, 1956, 1957, 1959, 1958, 1960
  14,   36,   15,   37,  124,  103,  125, 1963, 1962, 1961, 1964, 1965, 1966, 1968, 1967, 1969
  15,   37,   16,   38,  125,  104,  126, 1972, 1971, 1970, 1973, 1974, 1975, 1969, 1976, 1890
  16,   38,   17,   39,  126,  105,  127, 1977, 1876, 1886, 1978, 1881, 1887, 1890, 1882, 1883
  17,   32,    4,   54,  120,   92,  142, 1981, 1980, 1979, 1982, 1983, 1984, 1986, 1985, 1987
  18,    4,   19,   54,   92,  107,  142, 1989, 1988, 1980, 1990, 1991, 1983, 1985, 1992, 1987
  19,   40,   55,   88,  128,  143,  176, 1995, 1994, 1993, 1996, 1997, 1998, 2000, 1999, 2001
  20,   59,   61,   72,  147,  149,  160, 2004, 2003, 2002, 2005, 2006, 2007, 2009, 2008, 2010
** ... 2820 like lines cut
*Nset, nset=AllSet, generate
    1,  8417,     1
*Elset, elset=AllSet, generate
    1,  2840,     1
** Section: Section-1
*Solid Section, elset=AllSet, material=Material-1
,
*End Part
**  
**
** ASSEMBLY
**
*Assembly, name=Assembly
**  
*Instance, name=Part-1-1, part=Part-1
*End Instance
**  
*Node
      1,           0.,           0.,         100.
*Nset, nset=RP
 1,
*Nset, nset=bottom, instance=Part-1-1
    1,    2,    3,    4,    5,    6,    7,    8,    9,   10,   11,   12,   13,   14,   15,   16
   17,   18,   19,   20,   21,   22,   23,   24,   25,   26,   27,   28,   29,   30,   31,   32
   33,   34,   35,   36,   37,   38,   39,   40,   41,   42,   43,   44,   45,   46,   47,   48
   49,   50,   51,   52,   53,   54,   55,   56,   57,   58,   59,   60,   61,   62,   63,   64
   65,   66,   67,   68,   69,   70,   71,   72,   73,   74,   75,   76,   77,   78,   79,   80
   81,   82,   83,   84,   85,   86,   87,   88, 1849, 1850, 1851, 1858, 1859, 1860, 1867, 1868
 1869, 1876, 1877, 1878, 1884, 1885, 1886, 1892, 1893, 1894, 1901, 1902, 1903, 1910, 1911, 1912
 1918, 1919, 1920, 1927, 1928, 1929, 1936, 1937, 1938, 1944, 1945, 1946, 1952, 1953, 1954, 1961
 1962, 1963, 1970, 1971, 1972, 1977, 1979, 1980, 1981, 1988, 1989, 1993, 1994, 1995, 2002, 2003
 2004, 2011, 2012, 2013, 2019, 2020, 2021, 2026, 2028, 2029, 2030, 2036, 2037, 2041, 2042, 2046
 2047, 2050, 2051, 2052, 2058, 2059, 2060, 2067, 2068, 2071, 2072, 2075, 2076, 2077, 2084, 2085
 2086, 2091, 2093, 2094, 2095, 2100, 2101, 2104, 2105, 2108, 2109, 2110, 2115, 2116, 2119, 2121
 2122, 2123, 2128, 2130, 2131, 2132, 2136, 2138, 2139, 2143, 2144, 2148, 2150, 2151, 2152, 2157
 2159, 2160, 2164, 2166, 2167, 2168, 2173, 2175, 2176, 2177, 2181, 2182, 2185, 2186, 2189, 2190
 2191, 2198, 2199, 2200, 2205, 2206, 2209, 2211, 2212, 2215, 2216, 2217, 2222, 2224, 2226, 2227
 2228, 2233, 2234, 2238, 2240, 2242, 2244, 2246, 2247, 2248, 2252, 2253, 2254, 2260, 2262, 2263
 2266, 2267, 2270, 2272, 2273, 2274, 2281, 2283, 2284, 2287, 2289, 2291, 2293, 2295, 2296, 2297
 2302, 2303, 2306, 2308, 2310, 2312, 2314, 2315, 2316, 2321, 2323, 2324, 2327, 2329, 2330, 2334
 2336, 2337, 2340, 2341, 2344, 2346, 2347, 2351, 2353, 2355, 2357, 2358, 2361, 2363, 2365, 2366
 2369, 2370, 2373, 2375, 2377, 2378, 2381, 2383, 2384, 2387, 2389, 2391, 2392
*Elset, elset=bottom, instance=Part-1-1, generate
   1,  142,    1
*Nset, nset=_PickedSet8, internal
 1,
*Elset, elset=_head_S2, internal, instance=Part-1-1, generate
 2699,  2840,     1
*Surface, type=ELEMENT, name=head
_head_S2, S2
** Constraint: Constraint-1
*Coupling, constraint name=Constraint-1, ref node=RP, surface=head
*Kinematic
*End Assembly
** 
** MATERIALS
** 
*Material, name=Material-1
*Hyperelastic, neo hooke
 0.24, 0.4
** 
** BOUNDARY CONDITIONS
** 
** Name: BC-1 Type: Displacement/Rotation
*Boundary
bottom, 1, 1
bottom, 2, 2
bottom, 3, 3
bottom, 4, 4
bottom, 5, 5
bottom, 6, 6
** ----------------------------------------------------------------
** 
** STEP: Step-1
** 
*Step, name=Step-1, nlgeom=YES
*Static
1., 1., 1e-05, 1.
** 
** LOADS
** 
** Name: Load-1   Type: Concentrated force
*Cload
_PickedSet8, 1, 30.
** 
** OUTPUT REQUESTS
** 
*Restart, write, frequency=0
** 
** FIELD OUTPUT: F-Output-1
** 
*Output, field, variable=PRESELECT
** 
** HISTORY OUTPUT: H-Output-1
** 
*Output, history, variable=PRESELECT
*End Step
