*Heading
** Job name: C3D6 Model name: Model-1
** Generated by: Abaqus/CAE 2021
*Preprint, echo=NO, model=NO, history=NO, contact=NO
**
** PARTS
**
*Part, name=Part-1
*Node
      1,          20.,          20.,           0.
      2,         -20.,          20.,           0.
      3,          20.,         -20.,           0.
      4,         -20.,         -20.,           0.
      5,          15.,          20.,           0.
      6,          10.,          20.,           0.
      7,           5.,          20.,           0.
      8,           0.,          20.,           0.
      9,          -5.,          20.,           0.
     10,         -10.,          20.,           0.
     11,         -15.,          20.,           0.
     12,          20.,         -15.,           0.
     13,          20.,         -10.,           0.
     14,          20.,          -5.,           0.
     15,          20.,           0.,           0.
     16,          20.,           5.,           0.
     17,          20.,          10.,           0.
     18,          20.,          15.,           0.
     19,         -15.,         -20.,           0.
     20,         -10.,         -20.,           0.
** ... 1828 like lines cut
*Element, type=C3D6
   1,   11,   46,   49,   99,  134,  137
   2,   41,   21,   42,  129,  109,  130
   3,   18,    1,    5,  106,   89,   93
   4,   17,   18,   39,  105,  106,  127
   5,   38,   39,   50,  126,  127,  138
   6,    6,    7,   51,   94,   95,  139
   7,   33,    8,   34,  121,   96,  122
   8,   34,    9,   35,  122,   97,  123
   9,   27,   28,   57,  115,  116,  145
  10,   25,    3,   12,  113,   91,  100
  11,   24,   25,   45,  112,  113,  133
  12,   44,   45,   52,  132,  133,  140
  13,   13,   14,   53,  101,  102,  141
  14,   36,   15,   37,  124,  103,  125
  15,   37,   16,   38,  125,  104,  126
  16,   38,   17,   39,  126,  105,  127
  17,   32,    4,   54,  120,   92,  142
  18,    4,   19,   54,   92,  107,  142
  19,   40,   55,   88,  128,  143,  176
  20,   59,   61,   72,  147,  149,  160
** ... 2820 like lines cut
*Nset, nset=AllSet, generate
    1,  1848,     1
*Elset, elset=AllSet, generate
    1,  2840,     1
** Section: Section-1
*Solid Section, elset=AllSet, material=Material-1
,
*End Part
**  
**
** ASSEMBLY
**
*Assembly, name=Assembly
**  
*Instance, name=Part-1-1, part=Part-1
*End Instance
**  
*Node
      1,           0.,           0.,         100.
*Nset, nset=RP
 1,
*Nset, nset=bottom, instance=Part-1-1, generate
  1,  88,   1
*Elset, elset=bottom, instance=Part-1-1, generate
   1,  142,    1
*Nset, nset=_PickedSet8, internal
 1,
*Elset, elset=_head_S2, internal, instance=Part-1-1, generate
 2699,  2840,     1
*Surface, type=ELEMENT, name=head
_head_S2, S2
** Constraint: Constraint-1
*Coupling, constraint name=Constraint-1, ref node=RP, surface=head
*Kinematic
*End Assembly
** 
** MATERIALS
** 
*Material, name=Material-1
*Hyperelastic, neo hooke
 0.24, 0.4
** 
** BOUNDARY CONDITIONS
** 
** Name: BC-1 Type: Displacement/Rotation
*Boundary
bottom, 1, 1
bottom, 2, 2
bottom, 3, 3
bottom, 4, 4
bottom, 5, 5
bottom, 6, 6
** ----------------------------------------------------------------
** 
** STEP: Step-1
** 
*Step, name=Step-1, nlgeom=YES
*Static
1., 1., 1e-05, 1.
** 
** LOADS
** 
** Name: Load-1   Type: Concentrated force
*Cload
_PickedSet8, 1, 30.
** 
** OUTPUT REQUESTS
** 
*Restart, write, frequency=0
** 
** FIELD OUTPUT: F-Output-1
** 
*Output, field, variable=PRESELECT
** 
** HISTORY OUTPUT: H-Output-1
** 
*Output, history, variable=PRESELECT
*End Step
