*Heading
** Job name: C3D8R Model name: Model-1
** Generated by: Abaqus/CAE 2021
*Preprint, echo=NO, model=NO, history=NO, contact=NO
**
** PARTS
**
*Part, name=Part-1
*Node
      1,         -20.,         -20.,         100.
      2,         -20.,         -15.,         100.
      3,         -20.,         -10.,         100.
      4,         -20.,          -5.,         100.
      5,         -20.,           0.,         100.
      6,         -20.,           5.,         100.
      7,         -20.,          10.,         100.
      8,         -20.,          15.,         100.
      9,         -20.,          20.,         100.
     10,         -20.,         -20.,          95.
     11,         -20.,         -15.,          95.
     12,         -20.,         -10.,          95.
     13,         -20.,          -5.,          95.
     14,         -20.,           0.,          95.
     15,         -20.,           5.,          95.
     16,         -20.,          10.,          95.
     17,         -20.,          15.,          95.
     18,         -20.,          20.,          95.
     19,         -20.,         -20.,          90.
     20,         -20.,         -15.,          90.
** ... 1681 like lines cut
*Element, type=C3D8R
   1,  190,  191,  200,  199,    1,    2,   11,   10
   2,  191,  192,  201,  200,    2,    3,   12,   11
   3,  192,  193,  202,  201,    3,    4,   13,   12
   4,  193,  194,  203,  202,    4,    5,   14,   13
   5,  194,  195,  204,  203,    5,    6,   15,   14
   6,  195,  196,  205,  204,    6,    7,   16,   15
   7,  196,  197,  206,  205,    7,    8,   17,   16
   8,  197,  198,  207,  206,    8,    9,   18,   17
   9,  199,  200,  209,  208,   10,   11,   20,   19
  10,  200,  201,  210,  209,   11,   12,   21,   20
  11,  201,  202,  211,  210,   12,   13,   22,   21
  12,  202,  203,  212,  211,   13,   14,   23,   22
  13,  203,  204,  213,  212,   14,   15,   24,   23
  14,  204,  205,  214,  213,   15,   16,   25,   24
  15,  205,  206,  215,  214,   16,   17,   26,   25
  16,  206,  207,  216,  215,   17,   18,   27,   26
  17,  208,  209,  218,  217,   19,   20,   29,   28
  18,  209,  210,  219,  218,   20,   21,   30,   29
  19,  210,  211,  220,  219,   21,   22,   31,   30
  20,  211,  212,  221,  220,   22,   23,   32,   31
** ... 1260 like lines cut
*Nset, nset=AllSet, generate
    1,  1701,     1
*Elset, elset=AllSet, generate
    1,  1280,     1
** Section: Section-1
*Solid Section, elset=AllSet, material=Material-1
,
*End Part
**  
**
** ASSEMBLY
**
*Assembly, name=Assembly
**  
*Instance, name=Part-1-1, part=Part-1
*End Instance
**  
*Node
      1,           0.,           0.,         100.
*Nset, nset=RP
 1,
*Nset, nset=bottom, instance=Part-1-1
  181,  182,  183,  184,  185,  186,  187,  188,  189,  370,  371,  372,  373,  374,  375,  376
  377,  378,  559,  560,  561,  562,  563,  564,  565,  566,  567,  748,  749,  750,  751,  752
  753,  754,  755,  756,  937,  938,  939,  940,  941,  942,  943,  944,  945, 1126, 1127, 1128
 1129, 1130, 1131, 1132, 1133, 1134, 1315, 1316, 1317, 1318, 1319, 1320, 1321, 1322, 1323, 1504
 1505, 1506, 1507, 1508, 1509, 1510, 1511, 1512, 1693, 1694, 1695, 1696, 1697, 1698, 1699, 1700
 1701,
*Elset, elset=bottom, instance=Part-1-1
  153,  154,  155,  156,  157,  158,  159,  160,  313,  314,  315,  316,  317,  318,  319,  320
  473,  474,  475,  476,  477,  478,  479,  480,  633,  634,  635,  636,  637,  638,  639,  640
  793,  794,  795,  796,  797,  798,  799,  800,  953,  954,  955,  956,  957,  958,  959,  960
 1113, 1114, 1115, 1116, 1117, 1118, 1119, 1120, 1273, 1274, 1275, 1276, 1277, 1278, 1279, 1280
*Nset, nset=_PickedSet8, internal
 1,
*Elset, elset=_head_S3, internal, instance=Part-1-1
    1,    2,    3,    4,    5,    6,    7,    8,  161,  162,  163,  164,  165,  166,  167,  168
  321,  322,  323,  324,  325,  326,  327,  328,  481,  482,  483,  484,  485,  486,  487,  488
  641,  642,  643,  644,  645,  646,  647,  648,  801,  802,  803,  804,  805,  806,  807,  808
  961,  962,  963,  964,  965,  966,  967,  968, 1121, 1122, 1123, 1124, 1125, 1126, 1127, 1128
*Surface, type=ELEMENT, name=head
_head_S3, S3
** Constraint: Constraint-1
*Coupling, constraint name=Constraint-1, ref node=RP, surface=head
*Kinematic
*End Assembly
** 
** MATERIALS
** 
*Material, name=Material-1
*Hyperelastic, neo hooke
 0.24, 0.4
** 
** BOUNDARY CONDITIONS
** 
** Name: BC-1 Type: Displacement/Rotation
*Boundary
bottom, 1, 1
bottom, 2, 2
bottom, 3, 3
bottom, 4, 4
bottom, 5, 5
bottom, 6, 6
** ----------------------------------------------------------------
** 
** STEP: Step-1
** 
*Step, name=Step-1, nlgeom=YES
*Static
1., 1., 1e-05, 1.
** 
** LOADS
** 
** Name: Load-1   Type: Concentrated force
*Cload
_PickedSet8, 1, 30.
** 
** OUTPUT REQUESTS
** 
*Restart, write, frequency=0
** 
** FIELD OUTPUT: F-Output-1
** 
*Output, field, variable=PRESELECT
** 
** HISTORY OUTPUT: H-Output-1
** 
*Output, history, variable=PRESELECT
*End Step
