*Heading
** Job name: rec Model name: rec
** Generated by: Abaqus/CAE 2021
*Preprint, echo=NO, model=NO, history=NO, contact=NO
**
** PARTS
**
*Part, name=rec
*Node
      1,         -75.,          -4.,          90.
      2,         -75.,           4.,          90.
      3,         -75.,           4.,          70.
      4,         -75.,          -4.,          70.
      5,         -55.,          -4.,          90.
      6,         -55.,          -4.,          70.
      7,         -55.,           4.,          90.
      8,         -55.,           4.,          70.
      9,         -75.,          -2.,          90.
     10,         -75.,           0.,          90.
     11,         -75.,           2.,          90.
     12,         -75.,           4.,          88.
     13,         -75.,           4.,          86.
     14,         -75.,           4.,          84.
     15,         -75.,           4.,          82.
     16,         -75.,           4.,          80.
     17,         -75.,           4.,          78.
     18,         -75.,           4.,          76.
     19,         -75.,           4.,          74.
     20,         -75.,           4.,          72.
** ... 680 like lines cut
*Element, type=C3D4
   1, 149, 363, 364, 365
   2, 366, 367, 368, 369
   3, 369, 370, 364, 366
   4, 369, 367, 368, 371
   5, 369, 363, 372, 365
   6, 370, 373, 374, 369
   7, 369, 363, 370, 373
   8, 375, 376, 377, 378
   9, 379, 380, 381, 382
  10, 380, 382, 383, 376
  11, 384, 380, 382, 383
  12, 385, 381, 386, 382
  13, 387, 388, 389, 390
  14, 378, 386, 391, 376
  15, 386, 378, 383, 376
  16, 392, 273, 264, 274
  17, 381, 386, 382, 376
  18, 382, 386, 383, 376
  19, 393, 382, 386, 383
  20, 394, 395, 396, 397
** ... 2974 like lines cut
*Nset, nset=Set-1, generate
   1,  700,    1
*Elset, elset=Set-1, generate
    1,  2994,     1
*Elset, elset=_contact_S3, internal
   16,   24,   38,   39,   40,   46,   47,   61,   95,   97,  106,  143,  150,  158,  171,  185
  190,  199,  214,  228,  233,  237,  244,  257,  269,  299,  309,  337,  348,  353,  358,  418
  425,  427,  462,  470,  473,  477,  520,  525,  553,  578,  582,  594,  613,  615,  643,  692
  737,  784,  815,  818,  844,  854,  856,  861,  878,  893,  911,  939,  940,  941,  950,  989
  997, 1039, 1061, 1065, 1069, 1086, 1130, 1143, 1162, 1178, 1188, 1192, 1205, 1209, 1212, 1213
 1215, 1240, 1241, 1242, 1259, 1264, 1279, 1295, 1297, 1304, 1310, 1319, 1334, 1344, 1346, 1367
 1380, 1381, 1389, 1390, 1408, 1436, 1443, 1447, 1474, 1494, 1506, 1507, 1509, 1555, 1576, 1583
 1590, 1591, 1596, 1597, 1599, 1607, 1610, 1611, 1617, 1619, 1622, 1624, 1626, 1628, 1629, 1633
 1634, 1635, 1636, 1638, 1639, 1640, 1642, 1644, 1646, 1652, 1655, 1656, 1661, 1669, 1671, 1673
 1674, 1680, 1682, 1689, 1693, 1700, 1711, 1712, 1722, 1725, 1729, 1730, 1735, 1737, 1738, 1742
 1744, 1746, 1749, 1752, 1756, 1759, 1769, 1774, 1778, 1783, 1796, 1797, 1798, 1800, 1802, 1807
 1813, 1815, 1819, 1820, 1821, 1822, 1833, 1835, 1843, 1845, 1846, 1848, 1852, 1865, 1870, 1875
 1877, 1881, 1882, 1883, 1886, 1889, 1890, 1895, 1899, 1908, 1910, 1911, 1917, 1920, 1922, 1924
 1926, 1931, 1934, 1939, 1948, 1949, 1950, 1954, 1963, 1964, 1973, 1975, 1978, 1979, 1987, 1989
 1992, 1996, 2000, 2003, 2009, 2012, 2013, 2017, 2026, 2028, 2029, 2033, 2034, 2037, 2038, 2043
 2045, 2053, 2056, 2059, 2061, 2067, 2069, 2074, 2075, 2076, 2080, 2082, 2084, 2086, 2088, 2089
 2091, 2093, 2095, 2098, 2101, 2108, 2110, 2112, 2113, 2115, 2125, 2129, 2131, 2133, 2135, 2137
 2138, 2141, 2142, 2152, 2157, 2159, 2161, 2168, 2172, 2176, 2177, 2178, 2179, 2180, 2185, 2186
 2187, 2188, 2189, 2192, 2201, 2202, 2204, 2206, 2207, 2208, 2211, 2212, 2214, 2218, 2219, 2220
 2222, 2228, 2243, 2252, 2253, 2263, 2272, 2275, 2281, 2285, 2287, 2289, 2291, 2294, 2301, 2302
** ... 25 like lines cut
*Elset, elset=_contact_S4, internal
  357, 1695, 2248, 2443, 2877, 2962
*Elset, elset=_contact_S1, internal
 1770,
*Elset, elset=_contact_S2, internal
  503, 1758
*Surface, type=ELEMENT, name=contact
_contact_S3, S3
_contact_S4, S4
_contact_S2, S2
_contact_S1, S1
** Section: Section-1
*Solid Section, elset=Set-1, material=Material-1
,
*End Part
**  
**
** ASSEMBLY
**
*Assembly, name=Assembly
**  
*Instance, name=rec-1, part=rec
*End Instance
**  
*End Assembly
** 
** MATERIALS
** 
*Material, name=Material-1
*Hyperelastic, neo hooke
 0.24, 0.4
