*Heading
** Job name: TopOptRun Model name: Model-1
** Generated by: Abaqus/CAE 2021
*Preprint, echo=NO, model=NO, history=NO, contact=NO
**
** PARTS
**
*Part, name=final_model
*Node
      1,   1.55627215,    7.8239069,           0.
      2,    1.5023613,   7.55287886,          80.
      3,  -3.24605155,  -2.49078274,          77.
      4,  -3.13736939,  -2.40738845,           3.
      5, 0.0474642031,   7.97703886,           0.
      6,  -1.46305931,   7.84187126,           0.
      7,  -2.92070198,    7.4232688,           0.
      8,  -4.27278566,   6.73637676,           0.
      9,  -5.47043705,   5.80601025,           0.
     10,  -6.47037411,   4.66580105,           0.
     11,  -7.23645639,   3.35695863,           0.
     12,  -7.74098921,   1.92678463,           0.
     13,  -7.96575022,  0.426973581,           0.
     14,  -7.90259886,  -1.08826995,           0.
     15,  -7.55383778,  -2.56418276,           0.
     16,   -6.9320507,  -3.94741488,           0.
     17,  -6.05973005,  -5.18798256,           0.
     18,  -4.96838808,  -6.24103689,           0.
     19,  -3.69747996,  -7.06852961,           0.
     20,  -2.29293346,  -7.64054298,           0.
** ... 4893 like lines cut
*Element, type=C3D4
    1, 2868, 2869, 2554, 2870
    2, 2868, 2869, 2871, 2872
    3, 2868, 2873, 2871, 2870
    4, 2874, 2875, 2876, 2877
    5, 2874, 2878, 2604, 2879
    6, 2874, 2880, 2589, 2588
    7, 2874, 2875, 2589, 2881
    8, 2874, 2588, 2882, 2880
    9, 2883, 2884, 2168, 2885
   10, 2883, 2886, 2884, 2885
   11, 2883, 2884, 2886, 2887
   12, 2888, 2889, 2890, 2580
   13, 2888,  184, 2891, 2892
   14, 2889, 2893, 2892, 2888
   15, 2894, 2895, 2896, 2234
   16, 2888, 2897, 2898, 2899
   17, 2888, 2897, 2899, 2891
   18, 2900, 2901, 2902, 2903
   19, 2900, 2901, 2904, 2902
   20, 2900, 2902, 2905, 2903
** ... 21066 like lines cut
*Nset, nset=surface_0_All
    1,    2,    5,    6,    7,    8,    9,   10,   11,   12,   13,   14,   15,   16,   17,   18
   19,   20,   21,   22,   23,   24,   25,   26,   27,   28,   29,   30,   31,   32,   33,   34
   35,   36,   37,   38,   39,   40,   41,   42,   43,   44,   45,   46,   47,   48,   49,   50
   51,   52,   53,   54,   55,   56,   57,   58,   59,   60,   61,   62,   63,   64,   65,   66
   67,   68,   69,   70,   71,   72,   73,   74,   75,   76,   77,   78,   79,   80,   81,   82
   83,   84,   85,   86,   87,   88,   89,   90,   91,   92,   93,   94,   95,   96,   97,   98
   99,  100,  101,  102,  103,  104,  105,  106,  107,  108,  109,  110,  111,  112,  113,  114
  115,  116,  117,  118,  119,  120,  121,  202,  203,  204,  205,  206,  207,  208,  209,  210
  211,  212,  213,  214,  215,  216,  217,  218,  219,  220,  221,  222,  223,  224,  225,  226
  227,  228,  229,  230,  231,  232,  233,  234,  235,  236,  237,  238,  239,  240,  241,  242
  243,  244,  245,  246,  247,  248,  249,  250,  251,  252,  253,  254,  255,  256,  257,  258
  259,  260,  261,  262,  263,  264,  265,  266,  267,  268,  269,  270,  271,  272,  273,  274
  275,  276,  277,  278,  279,  280,  281,  282,  283,  284,  285,  286,  287,  288,  289,  290
  291,  292,  293,  294,  295,  296,  297,  298,  299,  300,  301,  302,  303,  304,  305,  306
  307,  308,  309,  310,  311,  312,  313,  314,  315,  316,  317,  318,  319,  320,  321,  322
  323,  324,  325,  326,  327,  328,  329,  330,  331,  332,  333,  334,  335,  336,  337,  338
  339,  340,  341,  342,  343,  344,  345,  346,  347,  348,  349,  350,  351,  352,  353,  354
  355,  356,  357,  358,  359,  360,  361,  362,  363,  364,  365,  366,  367,  368,  369,  370
  371,  372,  373,  374,  375,  376,  377,  378,  379,  380,  381,  382,  383,  384,  385,  386
  387,  388,  389,  390,  391,  392,  393,  394,  395,  396,  397,  398,  399,  400,  401,  402
** ... 105 like lines cut
*Elset, elset=surface_0_All
    95,   134,   141,   149,   183,   187,   203,   225,   227,   243,   253,   399,   433,   448,   449,   456
   489,   491,   528,   564,   570,   577,   595,   614,   625,   627,   634,   638,   658,   745,   763,   800
   801,   878,   893,   946,   949,  1024,  1073,  1096,  1103,  1105,  1138,  1156,  1159,  1165,  1202,  1226
  1259,  1296,  1297,  1336,  1341,  1359,  1381,  1549,  1556,  1564,  1567,  1616,  1636,  1676,  1680,  1729
  1745,  1749,  1765,  1823,  1832,  1848,  1893,  1927,  1946,  1970,  1972,  1976,  2003,  2008,  2048,  2063
  2071,  2081,  2096,  2098,  2128,  2148,  2185,  2212,  2232,  2249,  2251,  2263,  2346,  2449,  2461,  2464
  2494,  2534,  2638,  2654,  2709,  2762,  2773,  2891,  2940,  2943,  2995,  3101,  3119,  3181,  3219,  3269
  3281,  3287,  3329,  3494,  3544,  3547,  3653,  3655,  3658,  3663,  3667,  3680,  3682,  3684,  3690,  3702
  3710,  3712,  3722,  3725,  3726,  3727,  3729,  3740,  3744,  3745,  3746,  3748,  3749,  3755,  3761,  3770
  3783,  3784,  3785,  3788,  3794,  3810,  3812,  3813,  3819,  3821,  3830,  3833,  3834,  3843,  3851,  3855
  3858,  3865,  3883,  3902,  3903,  3904,  3906,  3908,  3920,  3924,  3928,  3934,  3935,  3952,  3955,  3957
  3961,  3974,  3978,  3982,  3986,  3987,  3988,  3993,  3998,  4010,  4011,  4012,  4015,  4023,  4028,  4038
  4044,  4046,  4047,  4048,  4049,  4052,  4054,  4055,  4060,  4062,  4071,  4072,  4085,  4089,  4091,  4094
  4107,  4112,  4115,  4117,  4121,  4122,  4124,  4126,  4128,  4139,  4140,  4141,  4158,  4161,  4163,  4173
  4177,  4179,  4182,  4184,  4185,  4190,  4195,  4197,  4198,  4201,  4207,  4210,  4213,  4215,  4216,  4238
  4239,  4241,  4244,  4250,  4253,  4255,  4257,  4258,  4263,  4266,  4267,  4268,  4275,  4276,  4283,  4285
  4294,  4296,  4306,  4310,  4316,  4323,  4326,  4328,  4329,  4331,  4335,  4337,  4340,  4343,  4347,  4349
  4350,  4353,  4354,  4357,  4363,  4373,  4380,  4381,  4388,  4397,  4405,  4413,  4415,  4425,  4426,  4427
  4429,  4438,  4439,  4445,  4457,  4458,  4459,  4463,  4465,  4470,  4477,  4487,  4489,  4492,  4493,  4495
  4496,  4497,  4501,  4511,  4513,  4525,  4526,  4531,  4533,  4539,  4541,  4542,  4545,  4548,  4552,  4554
** ... 225 like lines cut
*Nset, nset=surface_0_Head
    2,   37,   38,   39,   40,   41,   42,   43,   44,   45,   46,   47,   48,   49,   50,   51
   52,   53,   54,   55,   56,   57,   58,   59,   60,   61,   62,   63,   64,   65,   66,   67
   68, 1984, 1985, 1986, 1987, 1988, 1989, 1990, 1991, 1992, 1993, 1994, 1995, 1996, 1997, 1998
 1999, 2000, 2001, 2002, 2003, 2004, 2005, 2006, 2007, 2008, 2009, 2010, 2011, 2012, 2013, 2014
 2015, 2016, 2017, 2018, 2019, 2020, 2021, 2022, 2023, 2024, 2025, 2026, 2027, 2028, 2029, 2030
 2031, 2032, 2033, 2034, 2035, 2036, 2037, 2038, 2039, 2040, 2041, 2042, 2043, 2044, 2045, 2046
 2047, 2048, 2049, 2050, 2051, 2052, 2053, 2054, 2055, 2056, 2057, 2058, 2059, 2060, 2061, 2062
 2063, 2064, 2065, 2066, 2067
*Elset, elset=surface_0_Head
   225,   227,   638,  2940,  3494,  3684,  3745,  3755,  4182,  4185,  4899,  4925,  4963,  4971,  4973,  4999
  5001,  5046,  5059,  5071,  5084,  5110,  5111,  5120,  5123,  5139,  5144,  5151,  5154,  5161,  5170,  5187
  5230,  5235,  5253,  5267,  5276,  5285,  5309,  5323,  5338,  5367,  5531,  5550,  5556,  5678,  7989,  8056
  8546, 12648, 12703, 14594, 14596, 14750, 14756, 14903, 14907, 14909, 14911, 14916, 14918, 14924, 14940, 14942
 14946, 14953, 14955, 14966, 14967, 14977, 14983, 14987, 14988, 14995, 15003, 15004, 15010, 15013, 15027, 15030
 15036, 15044, 15053, 15058, 15064, 15067, 15071, 15073, 15083, 15084, 15086, 15092, 15096, 15100, 15103, 15104
 15107, 15108, 15109, 15114, 15119, 15120, 15122, 15123, 15125, 15131, 15133, 15138, 15141, 15144, 15145, 15147
 15156, 15157, 15159, 15160, 15161, 15163, 15168, 15169, 15170, 15171, 15174, 15176, 15180, 15181, 15188, 15191
 15195, 15196, 15201, 15208, 15211, 15212, 15220, 15221, 15226, 15228, 15229, 15234, 15238, 15241, 15242, 15243
 15244, 15247, 15252, 15254, 15267, 15269, 15270, 15272, 15273, 15280, 15283, 15287, 15289, 15291, 15304, 15310
 15314, 15315, 15316, 15319, 15320, 15321, 15322, 15324, 15328, 15329, 15330, 15335, 15336, 15348, 15350, 15353
 15355, 15364, 15382, 15386, 15388, 15393, 15395, 15410, 15425, 15441, 15444, 15445, 15468, 15469, 15526, 15551
 15566, 16536, 17967, 17972, 20567, 20570, 20637
*Nset, nset=surface_0_Bottom
   1,   5,   6,   7,   8,   9,  10,  11,  12,  13,  14,  15,  16,  17,  18,  19
  20,  21,  22,  23,  24,  25,  26,  27,  28,  29,  30,  31,  32,  33,  34,  35
  36, 202, 203, 204, 205, 206, 207, 208, 209, 210, 211, 212, 213, 214, 215, 216
 217, 218, 219, 220, 221, 222, 223, 224, 225, 226, 227, 228, 229, 230, 231, 232
 233, 234, 235, 236, 237, 238, 239, 240, 241, 242, 243, 244, 245, 246, 247, 248
 249, 250, 251, 252, 253, 254, 255, 256, 257, 258, 259, 260, 261, 262, 263, 264
 265, 266, 267, 268, 269, 270, 271, 272, 273, 274, 275, 276, 277, 278, 279, 280
 281, 282, 283, 284, 285, 286, 287
*Elset, elset=surface_0_Bottom
   253,   745,  1680,  3710,  3712,  4010,  4047,  4094,  4122,  4128,  4140,  4190,  4267,  4268,  4275,  4276
  4285,  4294,  4296,  4306,  4310,  4323,  4326,  4328,  4331,  4335,  4337,  4343,  4347,  4349,  4350,  4353
  4357,  4380,  4405,  4413,  4429,  4438,  4445,  4457,  4458,  4459,  4463,  4470,  4489,  4492,  4493,  4501
  4525,  4533,  4539,  4542,  4545,  4548,  4554,  4556,  4585,  4587,  4598,  4600,  4602,  4606,  4610,  4612
  4625,  4634,  4643,  4648,  4659,  4664,  4676,  4684,  4686,  4700,  4714,  4727,  4732,  4733,  4735,  4743
  4749,  4752,  4753,  4762,  4766,  4767,  4773,  4774,  4794,  4795,  4800,  4807,  4808,  4811,  4813,  4815
  4817,  4820,  4838,  4841,  4846,  4847,  4850,  4851,  4853,  4859,  4860,  4863,  4865,  4869,  4872,  9781
 12937, 13142, 13334, 13432, 13435, 13548, 13552, 13572, 13625, 13639, 13658, 13678, 13704, 13713, 13714, 13726
 13727, 13791, 13797, 13810, 13820, 13846, 13849, 13851, 13860, 13864, 13871, 13872, 13877, 13915, 13916, 14050
 14058, 14073, 14096, 14112, 14116, 14117, 14122, 14131, 14135, 14148, 14189, 14195, 14201, 14236, 14239, 14240
 14248, 14250, 14267, 14274, 14299, 14316, 14323, 14357, 14379, 14505, 14506, 14540, 14541, 14555, 14623, 14628
 14730, 14763, 14799, 14805, 14818, 14823, 14851, 14868, 14879, 14885, 14893, 15590, 15594, 15595, 15615, 15633
 15651, 16017, 16027, 16864, 17012, 17749, 18410, 19089, 19835, 19972, 20629
*Nset, nset=surface_0_Lateral
    1,    2,    5,    6,    7,    8,    9,   10,   11,   12,   13,   14,   15,   16,   17,   18
   19,   20,   21,   22,   23,   24,   25,   26,   27,   28,   29,   30,   31,   32,   33,   34
   35,   36,   37,   38,   39,   40,   41,   42,   43,   44,   45,   46,   47,   48,   49,   50
   51,   52,   53,   54,   55,   56,   57,   58,   59,   60,   61,   62,   63,   64,   65,   66
   67,   68,   69,   70,   71,   72,   73,   74,   75,   76,   77,   78,   79,   80,   81,   82
   83,   84,   85,   86,   87,   88,   89,   90,   91,   92,   93,   94,   95,   96,   97,   98
   99,  100,  101,  102,  103,  104,  105,  106,  107,  108,  109,  110,  111,  112,  113,  114
  115,  116,  117,  118,  119,  120,  121,  288,  289,  290,  291,  292,  293,  294,  295,  296
  297,  298,  299,  300,  301,  302,  303,  304,  305,  306,  307,  308,  309,  310,  311,  312
  313,  314,  315,  316,  317,  318,  319,  320,  321,  322,  323,  324,  325,  326,  327,  328
  329,  330,  331,  332,  333,  334,  335,  336,  337,  338,  339,  340,  341,  342,  343,  344
  345,  346,  347,  348,  349,  350,  351,  352,  353,  354,  355,  356,  357,  358,  359,  360
  361,  362,  363,  364,  365,  366,  367,  368,  369,  370,  371,  372,  373,  374,  375,  376
  377,  378,  379,  380,  381,  382,  383,  384,  385,  386,  387,  388,  389,  390,  391,  392
  393,  394,  395,  396,  397,  398,  399,  400,  401,  402,  403,  404,  405,  406,  407,  408
  409,  410,  411,  412,  413,  414,  415,  416,  417,  418,  419,  420,  421,  422,  423,  424
  425,  426,  427,  428,  429,  430,  431,  432,  433,  434,  435,  436,  437,  438,  439,  440
  441,  442,  443,  444,  445,  446,  447,  448,  449,  450,  451,  452,  453,  454,  455,  456
  457,  458,  459,  460,  461,  462,  463,  464,  465,  466,  467,  468,  469,  470,  471,  472
  473,  474,  475,  476,  477,  478,  479,  480,  481,  482,  483,  484,  485,  486,  487,  488
** ... 94 like lines cut
*Elset, elset=surface_0_Lateral
    95,   134,   141,   149,   183,   187,   203,   243,   399,   433,   448,   449,   456,   489,   491,   528
   564,   570,   577,   595,   614,   625,   627,   634,   658,   763,   800,   801,   878,   893,   946,   949
  1024,  1073,  1096,  1103,  1105,  1138,  1156,  1159,  1165,  1202,  1226,  1259,  1296,  1297,  1336,  1341
  1359,  1381,  1549,  1556,  1564,  1567,  1616,  1636,  1676,  1729,  1745,  1749,  1765,  1823,  1832,  1848
  1893,  1927,  1946,  1970,  1972,  1976,  2003,  2008,  2048,  2063,  2071,  2081,  2096,  2098,  2128,  2148
  2185,  2212,  2232,  2249,  2251,  2263,  2346,  2449,  2461,  2464,  2494,  2534,  2638,  2654,  2709,  2762
  2773,  2891,  2943,  2995,  3101,  3119,  3181,  3219,  3269,  3281,  3287,  3329,  3544,  3547,  3653,  3655
  3658,  3663,  3667,  3680,  3682,  3684,  3690,  3702,  3722,  3725,  3726,  3727,  3729,  3740,  3744,  3745
  3746,  3748,  3749,  3761,  3770,  3783,  3784,  3785,  3788,  3794,  3810,  3812,  3813,  3819,  3821,  3830
  3833,  3834,  3843,  3851,  3855,  3858,  3865,  3883,  3902,  3903,  3904,  3906,  3908,  3920,  3924,  3928
  3934,  3935,  3952,  3955,  3957,  3961,  3974,  3978,  3982,  3986,  3987,  3988,  3993,  3998,  4011,  4012
  4015,  4023,  4028,  4038,  4044,  4046,  4048,  4049,  4052,  4054,  4055,  4060,  4062,  4071,  4072,  4085
  4089,  4091,  4094,  4107,  4112,  4115,  4117,  4121,  4122,  4124,  4126,  4139,  4141,  4158,  4161,  4163
  4173,  4177,  4179,  4184,  4185,  4195,  4197,  4198,  4201,  4207,  4210,  4213,  4215,  4216,  4238,  4239
  4241,  4244,  4250,  4253,  4255,  4257,  4258,  4263,  4266,  4283,  4296,  4316,  4329,  4340,  4349,  4353
  4354,  4363,  4373,  4381,  4388,  4397,  4415,  4425,  4426,  4427,  4429,  4439,  4465,  4477,  4487,  4495
  4496,  4497,  4511,  4513,  4526,  4531,  4541,  4552,  4558,  4561,  4575,  4579,  4584,  4587,  4591,  4624
  4625,  4633,  4642,  4651,  4653,  4666,  4672,  4676,  4702,  4703,  4705,  4707,  4713,  4721,  4756,  4764
  4781,  4784,  4803,  4816,  4819,  4852,  4881,  4885,  4886,  4887,  4904,  4908,  4910,  4925,  4927,  4930
  4934,  4948,  4951,  4953,  4963,  4973,  4974,  4979,  4980,  4987,  4993,  4995,  4998,  4999,  5015,  5019
** ... 203 like lines cut
*Nset, nset=surface_1_All
    3,    4,  122,  123,  124,  125,  126,  127,  128,  129,  130,  131,  132,  133,  134,  135
  136,  137,  138,  139,  140,  141,  142,  143,  144,  145,  146,  147,  148,  149,  150,  151
  152,  153,  154,  155,  156,  157,  158,  159,  160,  161,  162,  163,  164,  165,  166,  167
  168,  169,  170,  171,  172,  173,  174,  175,  176,  177,  178,  179,  180,  181,  182,  183
  184,  185,  186,  187,  188,  189,  190,  191,  192,  193,  194,  195,  196,  197,  198,  199
  200,  201, 2068, 2069, 2070, 2071, 2072, 2073, 2074, 2075, 2076, 2077, 2078, 2079, 2080, 2081
 2082, 2083, 2084, 2085, 2086, 2087, 2088, 2089, 2090, 2091, 2092, 2093, 2094, 2095, 2096, 2097
 2098, 2099, 2100, 2101, 2102, 2103, 2104, 2105, 2106, 2107, 2108, 2109, 2110, 2111, 2112, 2113
 2114, 2115, 2116, 2117, 2118, 2119, 2120, 2121, 2122, 2123, 2124, 2125, 2126, 2127, 2128, 2129
 2130, 2131, 2132, 2133, 2134, 2135, 2136, 2137, 2138, 2139, 2140, 2141, 2142, 2143, 2144, 2145
 2146, 2147, 2148, 2149, 2150, 2151, 2152, 2153, 2154, 2155, 2156, 2157, 2158, 2159, 2160, 2161
 2162, 2163, 2164, 2165, 2166, 2167, 2168, 2169, 2170, 2171, 2172, 2173, 2174, 2175, 2176, 2177
 2178, 2179, 2180, 2181, 2182, 2183, 2184, 2185, 2186, 2187, 2188, 2189, 2190, 2191, 2192, 2193
 2194, 2195, 2196, 2197, 2198, 2199, 2200, 2201, 2202, 2203, 2204, 2205, 2206, 2207, 2208, 2209
 2210, 2211, 2212, 2213, 2214, 2215, 2216, 2217, 2218, 2219, 2220, 2221, 2222, 2223, 2224, 2225
 2226, 2227, 2228, 2229, 2230, 2231, 2232, 2233, 2234, 2235, 2236, 2237, 2238, 2239, 2240, 2241
 2242, 2243, 2244, 2245, 2246, 2247, 2248, 2249, 2250, 2251, 2252, 2253, 2254, 2255, 2256, 2257
 2258, 2259, 2260, 2261, 2262, 2263, 2264, 2265, 2266, 2267, 2268, 2269, 2270, 2271, 2272, 2273
 2274, 2275, 2276, 2277, 2278, 2279, 2280, 2281, 2282, 2283, 2284, 2285, 2286, 2287, 2288, 2289
 2290, 2291, 2292, 2293, 2294, 2295, 2296, 2297, 2298, 2299, 2300, 2301, 2302, 2303, 2304, 2305
** ... 36 like lines cut
*Elset, elset=surface_1_All
    36,    43,    47,    69,    77,   206,   244,   272,   282,   313,   335,   339,   345,   349,   354,   361
   363,   387,   389,   479,   515,   536,   607,   611,   620,   756,   760,   785,   847,   865,   869,   912
   917,   965,   982,   986,  1017,  1030,  1074,  1092,  1143,  1149,  1183,  1190,  1208,  1229,  1230,  1251
  1313,  1325,  1350,  1412,  1414,  1423,  1451,  1474,  1508,  1588,  1614,  1628,  1632,  1728,  1730,  1767
  1814,  1831,  1839,  1840,  1841,  1847,  1857,  1879,  1909,  1991,  2033,  2089,  2099,  2107,  2214,  2241
  2280,  2289,  2349,  2351,  2388,  2407,  2491,  2605,  2698,  2704,  2723,  2805,  2857,  2892,  2977,  2982
  3016,  3046,  3050,  3374,  3378,  3389,  3549,  3584,  3588,  3656,  3660,  3716,  3719,  3742,  3766,  3841
  3917,  3932,  3933,  3939,  3945,  3946,  3967,  3969,  4022,  4024,  4033,  4090,  4102,  4120,  4162,  4203
  4205,  4224,  4228,  4233,  4235,  4246,  4247,  4249,  4324,  4327,  4342,  4378,  4404,  4475,  4500,  4505
  4564,  4582,  4594,  4619,  4630,  4692,  4770,  4782,  4821,  4832,  4866,  4867,  4873,  4893,  4898,  4952
  4956,  4991,  4992,  5000,  5051,  5052,  5066,  5094,  5106,  5160,  5290,  5327,  5376,  5395,  5473,  5547
  5569,  5583,  5648,  5665,  5704,  5716,  5724,  5730,  5735,  5749,  5756,  5802,  5874,  5909,  5911,  5913
  5971,  5973,  5992,  5997,  6014,  6021,  6024,  6040,  6064,  6077,  6084,  6109,  6156,  6164,  6171,  6183
  6207,  6215,  6247,  6257,  6260,  6263,  6266,  6290,  6317,  6331,  6338,  6363,  6382,  6392,  6393,  6405
  6415,  6416,  6528,  6530,  6532,  6563,  6564,  6568,  6588,  6596,  6643,  6692,  6704,  6715,  6727,  6742
  6751,  6801,  6818,  6821,  6822,  6837,  6838,  6844,  6857,  6918,  6919,  6936,  6945,  6964,  6974,  6984
  7010,  7034,  7039,  7049,  7058,  7091,  7150,  7154,  7214,  7215,  7219,  7225,  7236,  7239,  7283,  7291
  7337,  7357,  7398,  7405,  7442,  7492,  7526,  7561,  7570,  7599,  7606,  7635,  7637,  7639,  7645,  7652
  7655,  7683,  7684,  7710,  7765,  7782,  7831,  7835,  7847,  7893,  7915,  7921,  7932,  7952,  7967,  7969
  8022,  8057,  8119,  8163,  8175,  8184,  8203,  8210,  8215,  8247,  8260,  8266,  8274,  8287,  8296,  8318
** ... 90 like lines cut
*Nset, nset=surface_1_Head
    3,  122,  123,  124,  125,  126,  127,  128,  129,  130,  131,  132,  133,  134,  135,  136
  137, 2068, 2069, 2070, 2071, 2072, 2073, 2074, 2075, 2076, 2077, 2078, 2079, 2080, 2081, 2082
 2083,
*Elset, elset=surface_1_Head
  1074,  4898,  4952,  5106,  5704,  5971,  7039,  9343,  9412, 13983, 13986, 14962, 14963, 15024, 15045, 15049
 15257, 15362, 15366, 15369, 15372, 15396, 15415, 15426, 15427, 15439, 15442, 15443, 15446, 15454, 15455, 15457
 15458, 15492, 15495, 15511, 15513, 15527, 15534, 15537, 15550, 15553, 15567, 15572, 15819, 16532, 18220
*Nset, nset=surface_1_Bottom
    4,  138,  139,  140,  141,  142,  143,  144,  145,  146,  147,  148,  149,  150,  151,  152
  153, 2084, 2085, 2086, 2087, 2088, 2089, 2090, 2091, 2092, 2093, 2094, 2095, 2096, 2097, 2098
 2099,
*Elset, elset=surface_1_Bottom
  3374,  3378,  3917,  4500,  4692,  4832,  4866,  4873, 10157, 10384, 10949, 10950, 12732, 12819, 13379, 13470
 13566, 13927, 14026, 14142, 14152, 14163, 14394, 14439, 14522, 14525, 14527, 15588, 15634, 15635, 15642, 15662
 15669, 15681, 15688, 15689, 15696, 15700, 15701, 15721, 15732, 15751, 15754, 17016, 20306, 20323, 20617
*Nset, nset=surface_1_Lateral
    3,    4,  122,  123,  124,  125,  126,  127,  128,  129,  130,  131,  132,  133,  134,  135
  136,  137,  138,  139,  140,  141,  142,  143,  144,  145,  146,  147,  148,  149,  150,  151
  152,  153,  154,  155,  156,  157,  158,  159,  160,  161,  162,  163,  164,  165,  166,  167
  168,  169,  170,  171,  172,  173,  174,  175,  176,  177,  178,  179,  180,  181,  182,  183
  184,  185,  186,  187,  188,  189,  190,  191,  192,  193,  194,  195,  196,  197,  198,  199
  200,  201, 2100, 2101, 2102, 2103, 2104, 2105, 2106, 2107, 2108, 2109, 2110, 2111, 2112, 2113
 2114, 2115, 2116, 2117, 2118, 2119, 2120, 2121, 2122, 2123, 2124, 2125, 2126, 2127, 2128, 2129
 2130, 2131, 2132, 2133, 2134, 2135, 2136, 2137, 2138, 2139, 2140, 2141, 2142, 2143, 2144, 2145
 2146, 2147, 2148, 2149, 2150, 2151, 2152, 2153, 2154, 2155, 2156, 2157, 2158, 2159, 2160, 2161
 2162, 2163, 2164, 2165, 2166, 2167, 2168, 2169, 2170, 2171, 2172, 2173, 2174, 2175, 2176, 2177
 2178, 2179, 2180, 2181, 2182, 2183, 2184, 2185, 2186, 2187, 2188, 2189, 2190, 2191, 2192, 2193
 2194, 2195, 2196, 2197, 2198, 2199, 2200, 2201, 2202, 2203, 2204, 2205, 2206, 2207, 2208, 2209
 2210, 2211, 2212, 2213, 2214, 2215, 2216, 2217, 2218, 2219, 2220, 2221, 2222, 2223, 2224, 2225
 2226, 2227, 2228, 2229, 2230, 2231, 2232, 2233, 2234, 2235, 2236, 2237, 2238, 2239, 2240, 2241
 2242, 2243, 2244, 2245, 2246, 2247, 2248, 2249, 2250, 2251, 2252, 2253, 2254, 2255, 2256, 2257
 2258, 2259, 2260, 2261, 2262, 2263, 2264, 2265, 2266, 2267, 2268, 2269, 2270, 2271, 2272, 2273
 2274, 2275, 2276, 2277, 2278, 2279, 2280, 2281, 2282, 2283, 2284, 2285, 2286, 2287, 2288, 2289
 2290, 2291, 2292, 2293, 2294, 2295, 2296, 2297, 2298, 2299, 2300, 2301, 2302, 2303, 2304, 2305
 2306, 2307, 2308, 2309, 2310, 2311, 2312, 2313, 2314, 2315, 2316, 2317, 2318, 2319, 2320, 2321
 2322, 2323, 2324, 2325, 2326, 2327, 2328, 2329, 2330, 2331, 2332, 2333, 2334, 2335, 2336, 2337
** ... 34 like lines cut
*Elset, elset=surface_1_Lateral
    36,    43,    47,    69,    77,   206,   244,   272,   282,   313,   335,   339,   345,   349,   354,   361
   363,   387,   389,   479,   515,   536,   607,   611,   620,   756,   760,   785,   847,   865,   869,   912
   917,   965,   982,   986,  1017,  1030,  1092,  1143,  1149,  1183,  1190,  1208,  1229,  1230,  1251,  1313
  1325,  1350,  1412,  1414,  1423,  1451,  1474,  1508,  1588,  1614,  1628,  1632,  1728,  1730,  1767,  1814
  1831,  1839,  1840,  1841,  1847,  1857,  1879,  1909,  1991,  2033,  2089,  2099,  2107,  2214,  2241,  2280
  2289,  2349,  2351,  2388,  2407,  2491,  2605,  2698,  2704,  2723,  2805,  2857,  2892,  2977,  2982,  3016
  3046,  3050,  3389,  3549,  3584,  3588,  3656,  3660,  3716,  3719,  3742,  3766,  3841,  3932,  3933,  3939
  3945,  3946,  3967,  3969,  4022,  4024,  4033,  4090,  4102,  4120,  4162,  4203,  4205,  4224,  4228,  4233
  4235,  4246,  4247,  4249,  4324,  4327,  4342,  4378,  4404,  4475,  4505,  4564,  4582,  4594,  4619,  4630
  4770,  4782,  4821,  4867,  4893,  4956,  4991,  4992,  5000,  5051,  5052,  5066,  5094,  5160,  5290,  5327
  5376,  5395,  5473,  5547,  5569,  5583,  5648,  5665,  5716,  5724,  5730,  5735,  5749,  5756,  5802,  5874
  5909,  5911,  5913,  5973,  5992,  5997,  6014,  6021,  6024,  6040,  6064,  6077,  6084,  6109,  6156,  6164
  6171,  6183,  6207,  6215,  6247,  6257,  6260,  6263,  6266,  6290,  6317,  6331,  6338,  6363,  6382,  6392
  6393,  6405,  6415,  6416,  6528,  6530,  6532,  6563,  6564,  6568,  6588,  6596,  6643,  6692,  6704,  6715
  6727,  6742,  6751,  6801,  6818,  6821,  6822,  6837,  6838,  6844,  6857,  6918,  6919,  6936,  6945,  6964
  6974,  6984,  7010,  7034,  7049,  7058,  7091,  7150,  7154,  7214,  7215,  7219,  7225,  7236,  7239,  7283
  7291,  7337,  7357,  7398,  7405,  7442,  7492,  7526,  7561,  7570,  7599,  7606,  7635,  7637,  7639,  7645
  7652,  7655,  7683,  7684,  7710,  7765,  7782,  7831,  7835,  7847,  7893,  7915,  7921,  7932,  7952,  7967
  7969,  8022,  8057,  8119,  8163,  8175,  8184,  8203,  8210,  8215,  8247,  8260,  8266,  8274,  8287,  8296
  8318,  8349,  8371,  8374,  8376,  8379,  8429,  8431,  8440,  8448,  8468,  8476,  8486,  8518,  8520,  8521
** ... 85 like lines cut
*Nset, nset=RubberSet, generate
    1,  4913,     1
*Elset, elset=RubberSet, generate
     1,  21086,      1
*Elset, elset=_surface_0_All_S4, internal
    95,   134,   183,   187,   456,   528,   564,   745,   893,   949,  1297,  1749,  1946,  1970,  2762,  2943
  3287,  3684,  3745,  3761,  3903,  4085,  4094,  4122,  4198,  4213,  4349,  4353,  4575,  4587,  4625,  4653
  4743,  4773,  4971,  5071,  5111,  5120,  5139,  5170,  5276,  5772,  6182,  6343,  6414,  6599,  7462,  8170
  8381,  8589,  9024,  9063,  9173,  9408,  9522,  9781, 10168, 10441, 10900, 11165, 11191, 11240, 11328, 11538
 11750, 12189, 12656, 12703, 12743, 12901, 12939, 13413, 13495, 13629, 13736, 13769, 13851, 13864, 14031, 14150
 14316, 14588, 14623, 14728, 14799, 15058, 15096, 15148, 15170, 15252, 15477, 15590, 16017, 16027, 16519, 16669
 16804, 16866, 16905, 17012, 17023, 17287, 17551, 17597, 18005, 18172, 18249, 18264, 19061, 19089, 19278, 19281
 19365, 19431, 19452, 19467, 19468, 19621, 19628, 19830, 19953, 20382, 20426, 20629
*Elset, elset=_surface_0_All_S3, internal
   141,   149,   203,   225,   227,   243,   253,   399,   433,   448,   489,   577,   595,   614,   625,   627
   634,   638,   658,   763,   800,   801,   878,   946,  1024,  1073,  1096,  1103,  1105,  1138,  1156,  1159
  1165,  1202,  1226,  1259,  1296,  1336,  1341,  1359,  1381,  1549,  1556,  1564,  1567,  1616,  1636,  1676
  1680,  1729,  1745,  1765,  1823,  1832,  1848,  1893,  1927,  1972,  1976,  2003,  2008,  2048,  2063,  2071
  2081,  2128,  2148,  2185,  2212,  2232,  2249,  2251,  2263,  2346,  2449,  2461,  2494,  2534,  2638,  2654
  2709,  2773,  2891,  2940,  2995,  3119,  3181,  3219,  3269,  3281,  3329,  3494,  3547,  3653,  3655,  3658
  3663,  3667,  3680,  3682,  3684,  3690,  3702,  3710,  3712,  3725,  3726,  3727,  3729,  3740,  3744,  3745
  3746,  3748,  3749,  3770,  3783,  3784,  3785,  3788,  3794,  3810,  3812,  3813,  3819,  3821,  3833,  3834
  3843,  3851,  3855,  3858,  3865,  3883,  3902,  3904,  3906,  3908,  3920,  3924,  3928,  3935,  3952,  3955
  3957,  3961,  3974,  3978,  3982,  3986,  3987,  3988,  3993,  3998,  4010,  4011,  4012,  4015,  4023,  4028
  4038,  4044,  4046,  4047,  4048,  4049,  4052,  4054,  4055,  4060,  4062,  4071,  4072,  4091,  4094,  4107
  4112,  4115,  4117,  4121,  4122,  4124,  4126,  4128,  4139,  4140,  4141,  4158,  4161,  4163,  4173,  4177
  4179,  4182,  4184,  4185,  4190,  4195,  4197,  4201,  4207,  4210,  4215,  4216,  4238,  4239,  4241,  4244
  4250,  4253,  4255,  4257,  4258,  4263,  4266,  4267,  4268,  4275,  4276,  4283,  4285,  4294,  4296,  4306
  4323,  4326,  4328,  4329,  4331,  4335,  4337,  4340,  4343,  4347,  4349,  4350,  4353,  4354,  4357,  4363
  4373,  4380,  4381,  4388,  4397,  4405,  4413,  4415,  4425,  4426,  4427,  4429,  4438,  4439,  4445,  4457
  4458,  4459,  4463,  4465,  4470,  4477,  4487,  4489,  4492,  4493,  4495,  4496,  4497,  4501,  4511,  4513
  4525,  4526,  4531,  4533,  4539,  4541,  4542,  4545,  4548,  4552,  4554,  4556,  4558,  4561,  4579,  4585
  4587,  4591,  4598,  4600,  4602,  4606,  4610,  4612,  4624,  4625,  4633,  4634,  4642,  4648,  4651,  4659
  4664,  4666,  4672,  4684,  4686,  4700,  4702,  4703,  4705,  4713,  4714,  4721,  4727,  4732,  4733,  4735
** ... 209 like lines cut
*Elset, elset=_surface_0_All_S2, internal
   449,  2464,  3101,  3722,  3830,  3934,  4089,  4185,  4310,  4316,  4643,  4676,  4925,  4973,  4999,  5046
  5084,  5095,  5121,  5123,  5187,  5230,  5235,  5309,  5379,  5510,  6655,  6908,  7104,  7118,  7962,  8546
  9047,  9292,  9310,  9936,  9937, 10449, 10909, 11008, 11571, 12825, 12832, 13222, 13237, 13360, 13364, 13432
 13658, 13710, 13846, 13849, 13871, 13912, 14096, 14122, 14211, 14323, 14361, 14379, 14596, 14763, 14909, 14918
 14942, 14977, 14983, 14995, 15010, 15013, 15144, 15191, 15267, 15633, 15989, 16290, 16314, 16316, 16455, 16534
 16745, 17409, 17474, 17694, 18372, 18414, 18423, 18463, 18583, 18591, 18651, 18659, 19304, 19560, 19730, 19852
 19861, 20021, 20216, 20764
*Elset, elset=_surface_0_All_S1, internal
   491,   570,  2096,  2098,  3544,  3755,  4296,  4429,  4584,  4676,  4707,  4910,  4963,  4973,  4993,  4999
  5161,  5210,  5362,  5543,  6063,  7407,  7749,  8066,  8187,  8323,  8359,  8980,  9526, 11604, 11649, 12174
 12209, 13073, 13625, 13849, 13871, 14096, 14605, 14627, 14702, 14709, 14717, 14722, 14758, 14789, 14790, 14799
 14823, 14829, 14843, 14851, 14868, 14879, 14885, 14893, 14907, 14909, 14940, 14946, 14967, 14987, 15027, 15064
 15092, 15100, 15114, 15120, 15125, 15141, 15145, 15160, 15161, 15168, 15169, 15176, 15196, 16175, 16864, 18194
 18240, 19395, 19835
*Surface, type=ELEMENT, name=surface_0_All
_surface_0_All_S4, S4
_surface_0_All_S3, S3
_surface_0_All_S2, S2
_surface_0_All_S1, S1
*Elset, elset=_surface_1_All_S3, internal
    36,    43,    47,    69,   206,   244,   272,   282,   313,   335,   339,   345,   349,   354,   361,   363
   387,   389,   479,   515,   536,   607,   620,   756,   760,   847,   865,   869,   912,   965,   982,  1017
  1092,  1143,  1149,  1183,  1190,  1208,  1230,  1251,  1350,  1412,  1414,  1423,  1451,  1474,  1508,  1588
  1628,  1632,  1728,  1730,  1767,  1831,  1839,  1840,  1841,  1847,  1879,  1909,  1991,  2099,  2107,  2280
  2289,  2349,  2388,  2407,  2605,  2698,  2704,  2723,  2892,  2982,  3016,  3046,  3050,  3389,  3549,  3716
  3719,  3841,  3917,  3933,  3946,  3969,  4022,  4024,  4033,  4102,  4120,  4162,  4203,  4205,  4224,  4228
  4235,  4246,  4249,  4324,  4327,  4378,  4404,  4500,  4582,  4594,  4619,  4692,  4770,  4782,  4832,  4867
  4893,  4898,  4952,  4956,  4991,  4992,  5051,  5052,  5094,  5106,  5376,  5395,  5547,  5569,  5583,  5648
  5665,  5704,  5716,  5724,  5730,  5749,  5756,  5802,  5874,  5911,  5971,  5992,  5997,  6014,  6021,  6024
  6040,  6077,  6084,  6109,  6156,  6171,  6183,  6215,  6257,  6263,  6317,  6331,  6382,  6392,  6405,  6415
  6416,  6530,  6532,  6564,  6588,  6692,  6704,  6715,  6801,  6818,  6822,  6837,  6838,  6844,  6857,  6918
  6974,  6984,  7010,  7039,  7049,  7058,  7091,  7150,  7154,  7214,  7239,  7283,  7357,  7405,  7442,  7526
  7561,  7599,  7637,  7639,  7645,  7652,  7655,  7683,  7684,  7710,  7782,  7831,  7847,  7915,  7921,  7932
  7952,  7967,  7969,  8022,  8163,  8175,  8215,  8260,  8274,  8287,  8296,  8318,  8349,  8371,  8374,  8379
  8468,  8486,  8520,  8521,  8540,  8576,  8591,  8649,  8651,  8672,  8683,  8700,  8750,  8818,  8837,  8861
  8937,  8967,  8995,  9010,  9020,  9076,  9098,  9105,  9106,  9108,  9131,  9243,  9249,  9294,  9313,  9327
  9343,  9366,  9381,  9412,  9413,  9531,  9537,  9550,  9556,  9725,  9773,  9777,  9965, 10003, 10059, 10105
 10114, 10118, 10138, 10154, 10157, 10164, 10170, 10228, 10306, 10312, 10356, 10384, 10402, 10413, 10451, 10464
 10489, 10491, 10631, 10632, 10676, 10679, 10684, 10702, 10769, 10808, 10812, 10813, 10815, 10816, 10821, 10873
 10879, 10949, 10969, 10981, 11014, 11036, 11056, 11119, 11123, 11133, 11225, 11234, 11248, 11282, 11283, 11286
** ... 59 like lines cut
*Elset, elset=_surface_1_All_S4, internal
    77,  1814,  2033,  3374,  3378,  4247,  4564,  6393,  6936,  8266,  8476,  8637, 10072, 10931, 10950, 14225
 14630, 14927, 15045, 15396, 15443, 15879, 16273, 16654, 16755, 18729, 18816, 19271, 20375, 20514, 20688, 20703
*Elset, elset=_surface_1_All_S2, internal
   611,   785,   986,  1229,  1857,  2351,  2491,  2805,  2977,  3588,  3656,  3660,  3932,  3939,  3945,  3967
  4233,  4630,  4821,  4866,  4873,  5000,  5160,  5327,  5735,  5909,  5973,  6064,  6247,  6260,  6290,  6338
  6363,  6528,  6563,  6568,  6643,  6821,  6964,  7219,  7225,  7291,  7337,  7398,  7570,  7606,  7893,  8057
  8119,  8203,  8210,  8440,  8448,  8577,  8843,  8847,  9185,  9214,  9293,  9481,  9509,  9546,  9616,  9682
  9717,  9862,  9955, 10060, 10084, 10142, 10426, 10483, 10565, 10654, 10864, 10925, 10995, 11109, 11362, 11519
 11634, 11705, 11738, 11777, 11784, 11796, 11928, 11969, 11976, 12179, 12238, 12265, 12386, 12546, 12626, 12636
 12663, 12670, 12732, 12738, 12803, 12933, 13267, 13269, 13465, 13521, 13805, 13870, 13983, 14207, 14285, 15037
 15428, 15517, 15544, 15703, 15934, 15957, 16131, 16243, 16276, 16399, 16412, 16433, 16485, 16546, 16567, 16583
 16601, 16622, 16659, 16663, 16673, 16693, 16705, 16824, 16981, 17071, 17374, 17394, 17499, 17560, 17653, 17669
 17697, 17709, 17719, 17745, 17845, 17849, 17870, 17892, 17908, 17931, 17942, 17950, 17953, 17954, 17968, 18001
 18137, 18145, 18155, 18189, 18611, 18635, 18712, 18755, 18778, 18831, 18848, 18880, 18938, 18948, 18957, 18959
 18993, 19084, 19091, 19105, 19121, 19133, 19144, 19166, 19214, 19222, 19226, 19230, 19242, 19379, 19398, 19408
 19430, 19549, 19558, 19596, 19702, 19717, 19718, 19800, 19906, 20023, 20043, 20074, 20085, 20218, 20224, 20233
 20243, 20251, 20264, 20271, 20277, 20285, 20301, 20380, 20408, 20414, 20429, 20440, 20454, 20532, 20674, 20693
 20711, 20714, 20721, 20745, 20751, 20757, 21027, 21052, 21060, 21072
*Elset, elset=_surface_1_All_S1, internal
   917,  1030,  1074,  1313,  1325,  1614,  2089,  2214,  2241,  2857,  3584,  3742,  3766,  4090,  4342,  4475
  4505,  5066,  5290,  5473,  5913,  6164,  6207,  6266,  6596,  6727,  6742,  6751,  6919,  6945,  7034,  7215
  7236,  7492,  7635,  7765,  7835,  8184,  8247,  8376,  8429,  8431,  8518,  8574,  9177,  9220,  9361,  9604
  9692,  9729, 10033, 10217, 10307, 10406, 10852, 10987, 11012, 11154, 11237, 11313, 11419, 11474, 11578, 11785
 11910, 11970, 11973, 11984, 12162, 12287, 12289, 12304, 12387, 12457, 12740, 12858, 13115, 13261, 13370, 13412
 13440, 13583, 14101, 15311, 15412, 15440, 15905, 15997, 16132, 16252, 16400, 16413, 16414, 16442, 16490, 16595
 16631, 16636, 16640, 16652, 16732, 16779, 16860, 16934, 17005, 17233, 17248, 17260, 17369, 17382, 17434, 17462
 17500, 17557, 17658, 17673, 17701, 17747, 17755, 17772, 17815, 17848, 17857, 17866, 17872, 17891, 17905, 17919
 17951, 17958, 17966, 17984, 17986, 18000, 18107, 18117, 18141, 18143, 18144, 18185, 18501, 18503, 18519, 18608
 18756, 18773, 18776, 18784, 18944, 18947, 18958, 18970, 19007, 19012, 19014, 19048, 19093, 19116, 19122, 19131
 19147, 19163, 19167, 19203, 19205, 19218, 19231, 19243, 19256, 19266, 19326, 19358, 19362, 19416, 19429, 19529
 19531, 19559, 19565, 19570, 19579, 19588, 19651, 19703, 19707, 19716, 19877, 19923, 19955, 20036, 20039, 20044
 20062, 20071, 20081, 20097, 20144, 20162, 20219, 20225, 20252, 20278, 20286, 20384, 20386, 20409, 20413, 20453
 20459, 20463, 20490, 20511, 20518, 20522, 20535, 20549, 20553, 20578, 20586, 20694, 20712, 20720, 20727, 20732
 20744, 20775, 20789, 20831, 20854, 20936, 20942, 20943, 20965, 20976, 20978, 21071, 21080
*Surface, type=ELEMENT, name=surface_1_All
_surface_1_All_S3, S3
_surface_1_All_S4, S4
_surface_1_All_S2, S2
_surface_1_All_S1, S1
** Section: Rubber
*Solid Section, elset=RubberSet, material=Rubber
,
*End Part
**  
**
** ASSEMBLY
**
*Assembly, name=Assembly
**  
*Instance, name=final_model-1, part=final_model
*End Instance
**  
*End Assembly
** 
** MATERIALS
** 
*Material, name=Rubber
*Density
 1.08e-09,
*Hyperelastic, neo hooke
 0.241, 0.416667,       0.,       0.,       0.,       0.
** 
** BOUNDARY CONDITIONS
** 
** Name: BC-1 Type: Displacement/Rotation
*Boundary
final_model-1.surface_0_Bottom, 1, 1
final_model-1.surface_0_Bottom, 2, 2
final_model-1.surface_0_Bottom, 3, 3
final_model-1.surface_0_Bottom, 4, 4
final_model-1.surface_0_Bottom, 5, 5
final_model-1.surface_0_Bottom, 6, 6
