*Heading
** Job name: TopOptRun Model name: Model-1
** Generated by: Abaqus/CAE 2021
*Preprint, echo=NO, model=NO, history=NO, contact=NO
**
** PARTS
**
*Part, name=final_model
*Node
      1,   18.2280273,   8.85463047,          70.
      2,  -18.2280273,  -8.85463047,          70.
      3,  -18.8821278,  -9.17237091,           0.
      4,   18.8821278,   9.17237091,           0.
      5,  0.494521379,  -1.84557903,          67.
      6, -0.494521379,   1.84557903,          67.
      7,  0.494521379,  -1.84557903,           3.
      8, -0.494521379,   1.84557903,           3.
      9,   11.5202837,  -5.94689894,           3.
     10,   10.4797163,   5.94689894,           3.
     11,   11.5383101,  -6.15290546,          67.
     12,   10.4616899,   6.15290546,          67.
     13,  -11.5383101,   6.15290546,          67.
     14,  -10.4616899,  -6.15290546,          67.
     15,  -11.5202837,   5.94689894,           3.
     16,  -10.4797163,  -5.94689894,           3.
     17,   16.9745159,   11.0693865,          70.
     18,   15.4533033,   13.1095724,          70.
     19,   13.6883841,   14.9430113,          70.
     20,    11.707592,   16.5407925,          70.
** ... 17844 like lines cut
*Element, type=C3D4
    1, 11169, 11170, 11171, 11172
    2, 11173, 11169, 11174, 11175
    3, 11169, 11176, 11177, 11170
    4, 11169, 11175, 11173, 11178
    5, 11169, 11171, 11170, 11177
    6, 11169, 11175, 11178, 11179
    7, 11180, 11181, 11182, 11183
    8, 11180, 11184, 11185, 11181
    9, 11185, 11180, 11181, 11182
   10, 11186, 11187, 11188, 11183
   11, 11187, 11188, 11183, 11180
   12, 11180, 11189, 11190, 11183
   13, 11180, 11189, 11191, 11184
   14, 11192, 11193, 11194, 11195
   15, 11193, 11196, 11195, 11192
   16, 11192, 11197, 11198, 11199
   17,  9886, 11200,  8994, 11201
   18, 11200,  8994, 11201, 11192
   19, 11192, 11198, 11197,  8994
   20, 11202, 11203, 11204, 11205
** ... 74392 like lines cut
*Nset, nset=surface_0_All
    1,    2,    3,    4,   17,   18,   19,   20,   21,   22,   23,   24,   25,   26,   27,   28
   29,   30,   31,   32,   33,   34,   35,   36,   37,   38,   39,   40,   41,   42,   43,   44
   45,   46,   47,   48,   49,   50,   51,   52,   53,   54,   55,   56,   57,   58,   59,   60
   61,   62,   63,   64,   65,   66,   67,   68,   69,   70,   71,   72,   73,   74,   75,   76
   77,   78,   79,   80,   81,   82,   83,   84,   85,   86,   87,   88,   89,   90,   91,   92
   93,   94,   95,   96,   97,   98,   99,  100,  101,  102,  103,  104,  105,  106,  107,  108
  109,  110,  111,  112,  113,  114,  115,  116,  117,  118,  119,  120,  121,  122,  123,  124
  125,  126,  127,  128,  129,  130,  131,  132,  133,  134,  135,  136,  137,  138,  139,  140
  141,  142,  143,  144,  145,  146,  147,  148,  149,  150,  151,  152,  153,  154,  155,  156
  157,  158,  159,  160,  161,  162,  163,  164,  165,  166,  167,  168,  169,  170,  171,  172
  173,  174,  175,  176,  177,  178,  179,  180,  181,  182,  183,  184,  185,  186,  187,  188
  189,  190,  191,  192,  193,  194,  195,  196,  197,  198,  199,  200,  201,  202,  203,  204
  205,  206,  207,  208,  209,  210,  211,  212,  213,  214,  215,  216,  217,  218,  219,  220
  221,  222,  223,  224,  225,  226,  227,  228,  229,  230,  231,  232,  233,  234,  235,  236
  237,  238,  239,  240,  241,  242,  243,  244,  245,  246,  247,  248,  249,  250,  251,  252
  253,  254,  255,  256,  257,  258,  259,  260,  261,  262,  263,  264,  645,  646,  647,  648
  649,  650,  651,  652,  653,  654,  655,  656,  657,  658,  659,  660,  661,  662,  663,  664
  665,  666,  667,  668,  669,  670,  671,  672,  673,  674,  675,  676,  677,  678,  679,  680
  681,  682,  683,  684,  685,  686,  687,  688,  689,  690,  691,  692,  693,  694,  695,  696
  697,  698,  699,  700,  701,  702,  703,  704,  705,  706,  707,  708,  709,  710,  711,  712
** ... 311 like lines cut
*Elset, elset=surface_0_All
    25,    89,   298,   327,   344,   352,   369,   371,   377,   395,   406,   427,   473,   546,   547,   847
   867,   880,   934,   936,   984,   989,  1031,  1073,  1236,  1299,  1458,  1499,  1555,  1569,  1573,  1641
  1643,  1648,  1655,  1658,  1680,  1700,  1707,  1763,  1944,  1972,  2085,  2163,  2286,  2287,  2302,  2359
  2367,  2420,  2440,  2460,  2465,  2475,  2539,  2555,  2690,  2752,  2756,  2762,  2813,  2816,  2848,  2907
  2919,  2940,  2989,  2997,  3096,  3115,  3241,  3264,  3271,  3277,  3336,  3364,  3367,  3388,  3415,  3517
  3587,  3594,  3657,  3708,  3765,  3792,  3797,  3799,  3831,  3839,  3847,  3906,  4021,  4033,  4041,  4043
  4169,  4174,  4203,  4212,  4285,  4377,  4378,  4395,  4448,  4463,  4467,  4507,  4528,  4537,  4571,  4588
  4651,  4674,  4681,  4695,  4733,  4798,  4823,  4869,  4949,  5003,  5117,  5155,  5167,  5290,  5301,  5331
  5350,  5386,  5524,  5636,  5697,  5727,  5852,  5861,  5898,  6060,  6204,  6218,  6222,  6232,  6286,  6307
  6475,  6521,  6553,  6588,  6644,  6721,  6726,  6738,  6782,  6788,  6834,  6896,  6900,  6909,  6912,  6920
  6942,  6973,  7072,  7101,  7103,  7106,  7205,  7244,  7253,  7255,  7261,  7407,  7409,  7460,  7464,  7568
  7583,  7584,  7721,  7749,  7763,  7812,  7840,  7858,  7861,  7899,  7908,  7924,  7979,  7981,  8028,  8118
  8133,  8134,  8186,  8251,  8292,  8299,  8324,  8337,  8357,  8469,  8528,  8533,  8565,  8569,  8594,  8598
  8614,  8684,  8728,  8758,  8796,  8930,  8958,  8964,  9106,  9321,  9327,  9347,  9429,  9453,  9466,  9478
  9490,  9537,  9545,  9591,  9599,  9640,  9666,  9875,  9933,  9972, 10027, 10032, 10072, 10088, 10092, 10161
 10254, 10259, 10311, 10313, 10354, 10366, 10501, 10505, 10519, 10572, 10611, 10616, 10643, 10708, 10734, 10741
 10744, 10851, 10861, 10886, 10951, 11013, 11014, 11099, 11144, 11214, 11228, 11331, 11355, 11362, 11372, 11520
 11564, 11580, 11590, 11615, 11643, 11770, 11867, 11953, 12015, 12074, 12086, 12087, 12117, 12124, 12240, 12282
 12336, 12488, 12564, 12595, 12620, 12662, 12703, 12735, 12741, 12744, 12748, 12754, 12760, 12764, 12765, 12766
 12770, 12771, 12778, 12781, 12782, 12784, 12800, 12804, 12813, 12814, 12818, 12830, 12832, 12850, 12851, 12852
** ... 638 like lines cut
*Nset, nset=surface_0_Head
   1,   2,  17,  18,  19,  20,  21,  22,  23,  24,  25,  26,  27,  28,  29,  30
  31,  32,  33,  34,  35,  36,  37,  38,  39,  40,  41,  42,  43,  44,  45,  46
  47,  48,  49,  50,  51,  52,  53,  54,  55,  56,  57,  58,  59,  60,  61,  62
  63,  64, 645, 646, 647, 648, 649, 650, 651, 652, 653, 654, 655, 656, 657, 658
 659, 660, 661, 662, 663, 664, 665, 666, 667, 668, 669, 670, 671, 672, 673, 674
 675, 676, 677, 678, 679, 680, 681, 682, 683, 684, 685, 686, 687, 688, 689, 690
 691, 692, 693, 694, 695, 696, 697, 698, 699, 700, 701, 702, 703, 704, 705, 706
 707, 708, 709, 710, 711, 712, 713, 714, 715, 716, 717, 718, 719, 720, 721, 722
 723, 724, 725, 726, 727, 728, 729, 730, 731, 732, 733, 734, 735, 736, 737, 738
 739, 740, 741, 742, 743, 744, 745, 746, 747, 748, 749, 750, 751, 752, 753, 754
 755, 756, 757, 758, 759, 760, 761, 762, 763, 764, 765, 766, 767, 768, 769, 770
 771, 772, 773, 774, 775, 776, 777, 778, 779, 780, 781, 782, 783, 784, 785, 786
 787, 788, 789, 790, 791, 792, 793, 794, 795, 796, 797, 798, 799, 800, 801, 802
 803, 804, 805, 806, 807, 808, 809, 810, 811, 812, 813, 814, 815, 816, 817, 818
 819, 820, 821, 822, 823, 824, 825, 826, 827, 828, 829, 830, 831, 832, 833, 834
 835, 836, 837, 838, 839, 840, 841, 842, 843, 844, 845, 846, 847, 848, 849, 850
 851, 852, 853
*Elset, elset=surface_0_Head
   377,  2085,  2555,  3517,  3906,  5727,  6834,  6920,  7407,  8796,  8930,  9347, 11013, 11014, 11228, 12754
 12771, 12870, 12878, 12883, 12893, 12905, 13072, 13413, 13428, 13476, 13567, 13602, 13872, 13895, 13920, 14106
 14124, 14322, 14415, 14636, 14769, 14791, 14890, 14891, 15009, 15019, 15024, 15025, 15026, 15039, 15064, 15084
 15094, 15099, 15113, 15117, 15138, 15145, 15146, 15164, 15167, 15182, 15188, 15198, 15210, 15212, 15234, 15238
 15239, 15241, 15245, 15247, 15259, 15263, 15267, 15317, 15323, 15326, 15329, 15338, 15343, 15352, 15354, 15366
 15377, 15378, 15382, 15387, 15393, 15397, 15405, 15413, 15415, 15418, 15426, 15428, 15445, 15469, 15493, 15502
 15508, 15517, 15521, 15525, 15526, 15527, 15531, 15538, 15577, 15602, 15608, 15618, 15619, 15631, 15654, 15655
 15656, 15666, 15671, 15681, 15697, 15713, 15729, 15730, 15732, 15751, 15795, 15811, 15812, 15859, 15862, 15867
 15878, 15883, 15892, 15896, 15899, 15900, 15901, 15902, 15904, 15908, 15913, 15917, 15934, 15937, 15941, 15947
 15951, 15953, 15958, 15961, 15963, 15968, 15969, 15973, 15976, 15977, 15992, 15993, 16007, 16013, 16020, 16027
 16032, 16047, 16049, 16050, 16058, 16067, 16074, 16079, 16095, 16097, 16098, 16103, 16107, 16114, 16120, 16129
 16130, 16131, 16135, 16136, 16138, 16141, 16144, 16145, 16147, 16151, 16155, 16156, 16157, 16160, 16165, 16170
 16175, 16185, 16186, 16188, 16193, 16207, 16228, 16230, 16242, 16243, 16282, 16291, 16292, 16296, 16304, 16307
 16320, 16327, 16333, 16335, 16336, 16355, 16356, 16357, 16358, 16361, 16365, 16379, 16382, 16398, 16403, 16404
 16415, 16416, 16419, 16424, 16427, 16428, 16441, 16444, 16453, 16457, 16475, 16478, 16479, 16483, 16497, 16499
 16505, 16510, 16512, 16518, 16522, 16524, 16532, 16540, 16550, 16551, 16552, 16554, 16561, 16567, 16568, 16571
 16578, 17620, 18755, 18857, 18862, 18965, 18988, 18990, 19001, 19013, 19020, 19021, 19026, 19030, 19033, 19034
 19045, 19085, 19116, 19117, 19119, 19120, 19148, 19366, 19448, 19452, 19458, 19459, 19466, 19483, 19484, 19485
 19488, 19496, 19497, 19500, 19504, 19508, 19510, 19579, 19604, 19690, 19693, 19703, 19715, 19723, 19725, 19728
 19746, 19775, 19780, 19819, 19931, 19941, 19943, 19951, 19965, 19968, 19970, 19972, 19976, 19999, 20075, 20120
** ... 10 like lines cut
*Nset, nset=surface_0_Bottom
    3,    4,  213,  214,  215,  216,  217,  218,  219,  220,  221,  222,  223,  224,  225,  226
  227,  228,  229,  230,  231,  232,  233,  234,  235,  236,  237,  238,  239,  240,  241,  242
  243,  244,  245,  246,  247,  248,  249,  250,  251,  252,  253,  254,  255,  256,  257,  258
  259,  260,  261,  262,  263,  264, 5475, 5476, 5477, 5478, 5479, 5480, 5481, 5482, 5483, 5484
 5485, 5486, 5487, 5488, 5489, 5490, 5491, 5492, 5493, 5494, 5495, 5496, 5497, 5498, 5499, 5500
 5501, 5502, 5503, 5504, 5505, 5506, 5507, 5508, 5509, 5510, 5511, 5512, 5513, 5514, 5515, 5516
 5517, 5518, 5519, 5520, 5521, 5522, 5523, 5524, 5525, 5526, 5527, 5528, 5529, 5530, 5531, 5532
 5533, 5534, 5535, 5536, 5537, 5538, 5539, 5540, 5541, 5542, 5543, 5544, 5545, 5546, 5547, 5548
 5549, 5550, 5551, 5552, 5553, 5554, 5555, 5556, 5557, 5558, 5559, 5560, 5561, 5562, 5563, 5564
 5565, 5566, 5567, 5568, 5569, 5570, 5571, 5572, 5573, 5574, 5575, 5576, 5577, 5578, 5579, 5580
 5581, 5582, 5583, 5584, 5585, 5586, 5587, 5588, 5589, 5590, 5591, 5592, 5593, 5594, 5595, 5596
 5597, 5598, 5599, 5600, 5601, 5602, 5603, 5604, 5605, 5606, 5607, 5608, 5609, 5610, 5611, 5612
 5613, 5614, 5615, 5616, 5617, 5618, 5619, 5620, 5621, 5622, 5623, 5624, 5625, 5626, 5627, 5628
 5629, 5630, 5631, 5632, 5633, 5634, 5635, 5636, 5637, 5638, 5639, 5640, 5641, 5642, 5643, 5644
 5645, 5646, 5647, 5648, 5649, 5650, 5651, 5652, 5653, 5654, 5655, 5656, 5657, 5658, 5659, 5660
 5661, 5662, 5663, 5664, 5665, 5666, 5667, 5668, 5669, 5670, 5671, 5672, 5673, 5674, 5675, 5676
 5677, 5678, 5679, 5680, 5681, 5682, 5683, 5684, 5685
*Elset, elset=surface_0_Bottom
   327,   344,   936,  1236,  1458,  1499,  1569,  1573,  2997,  3115,  3336,  4169,  4174,  4212,  4674,  5290
  8533,  8964, 12595, 12781, 12813, 12850, 12851, 13188, 13289, 13323, 13332, 13844, 13868, 13953, 13964, 13995
 14005, 14006, 14023, 14086, 14162, 14442, 14691, 16037, 16595, 16669, 16688, 16735, 16749, 17028, 17050, 17051
 19354, 19370, 19372, 19777, 19852, 20704, 21061, 21840, 22489, 22490, 22832, 22965, 23043, 23044, 23046, 23096
 23101, 23110, 23201, 23209, 23243, 23257, 23263, 23293, 23793, 24590, 26340, 26599, 28073, 28468, 28495, 29489
 31112, 31116, 31117, 31373, 31398, 31411, 32013, 32249, 32281, 32342, 32516, 32551, 32592, 32636, 32669, 33058
 33101, 33121, 33126, 33130, 33176, 33190, 33227, 33245, 33247, 33258, 33309, 33313, 33319, 33337, 33343, 33353
 33380, 33485, 33492, 33503, 33517, 33649, 33689, 33771, 34849, 34909, 35538, 36439, 37532, 37805, 37811, 37816
 38208, 38352, 38702, 38707, 40995, 41074, 41162, 43504, 43825, 45380, 45387, 45604, 45612, 45625, 45646, 45779
 45786, 45930, 45963, 46095, 46120, 46180, 46215, 46228, 46286, 47265, 47529, 47530, 47532, 47537, 47544, 47553
 47570, 47573, 47578, 47586, 47591, 47597, 47609, 47618, 47621, 47631, 47642, 47645, 47659, 47666, 47667, 47669
 47673, 47674, 47675, 47685, 47689, 47690, 47694, 47695, 47699, 47713, 47716, 47719, 47736, 47740, 47748, 47752
 47754, 47763, 47770, 47771, 47794, 47796, 47799, 47807, 47812, 47815, 47831, 47834, 47838, 47854, 47873, 47882
 47889, 47892, 47899, 47913, 47931, 47932, 47936, 47950, 47964, 47967, 47981, 47985, 47987, 47998, 48005, 48012
 48014, 48016, 48017, 48031, 48036, 48041, 48048, 48054, 48057, 48067, 48076, 48084, 48087, 48088, 48090, 48099
 48114, 48125, 48132, 48147, 48161, 48165, 48166, 48167, 48172, 48174, 48188, 48192, 48200, 48206, 48210, 48220
 48228, 48230, 48232, 48235, 48237, 48246, 48247, 48257, 48263, 48273, 48274, 48288, 48289, 48296, 48299, 48307
 48310, 48311, 48313, 48314, 48316, 48325, 48329, 48348, 48354, 48360, 48361, 48386, 48394, 48403, 48404, 48408
 48410, 48417, 48423, 48426, 48427, 48428, 48436, 48440, 48449, 48453, 48466, 48467, 48477, 48485, 48489, 48491
 48496, 48508, 48518, 48522, 48526, 48529, 48538, 48543, 48545, 48550, 48565, 48568, 48578, 48579, 48583, 48584
** ... 10 like lines cut
*Nset, nset=surface_0_Lateral
    1,    2,    3,    4,   17,   18,   19,   20,   21,   22,   23,   24,   25,   26,   27,   28
   29,   30,   31,   32,   33,   34,   35,   36,   37,   38,   39,   40,   41,   42,   43,   44
   45,   46,   47,   48,   49,   50,   51,   52,   53,   54,   55,   56,   57,   58,   59,   60
   61,   62,   63,   64,   65,   66,   67,   68,   69,   70,   71,   72,   73,   74,   75,   76
   77,   78,   79,   80,   81,   82,   83,   84,   85,   86,   87,   88,   89,   90,   91,   92
   93,   94,   95,   96,   97,   98,   99,  100,  101,  102,  103,  104,  105,  106,  107,  108
  109,  110,  111,  112,  113,  114,  115,  116,  117,  118,  119,  120,  121,  122,  123,  124
  125,  126,  127,  128,  129,  130,  131,  132,  133,  134,  135,  136,  137,  138,  139,  140
  141,  142,  143,  144,  145,  146,  147,  148,  149,  150,  151,  152,  153,  154,  155,  156
  157,  158,  159,  160,  161,  162,  163,  164,  165,  166,  167,  168,  169,  170,  171,  172
  173,  174,  175,  176,  177,  178,  179,  180,  181,  182,  183,  184,  185,  186,  187,  188
  189,  190,  191,  192,  193,  194,  195,  196,  197,  198,  199,  200,  201,  202,  203,  204
  205,  206,  207,  208,  209,  210,  211,  212,  213,  214,  215,  216,  217,  218,  219,  220
  221,  222,  223,  224,  225,  226,  227,  228,  229,  230,  231,  232,  233,  234,  235,  236
  237,  238,  239,  240,  241,  242,  243,  244,  245,  246,  247,  248,  249,  250,  251,  252
  253,  254,  255,  256,  257,  258,  259,  260,  261,  262,  263,  264,  854,  855,  856,  857
  858,  859,  860,  861,  862,  863,  864,  865,  866,  867,  868,  869,  870,  871,  872,  873
  874,  875,  876,  877,  878,  879,  880,  881,  882,  883,  884,  885,  886,  887,  888,  889
  890,  891,  892,  893,  894,  895,  896,  897,  898,  899,  900,  901,  902,  903,  904,  905
  906,  907,  908,  909,  910,  911,  912,  913,  914,  915,  916,  917,  918,  919,  920,  921
** ... 285 like lines cut
*Elset, elset=surface_0_Lateral
    25,    89,   298,   352,   369,   371,   377,   395,   406,   427,   473,   546,   547,   847,   867,   880
   934,   984,   989,  1031,  1073,  1299,  1555,  1641,  1643,  1648,  1655,  1658,  1680,  1700,  1707,  1763
  1944,  1972,  2163,  2286,  2287,  2302,  2359,  2367,  2420,  2440,  2460,  2465,  2475,  2539,  2690,  2752
  2756,  2762,  2813,  2816,  2848,  2907,  2919,  2940,  2989,  3096,  3241,  3264,  3271,  3277,  3364,  3367
  3388,  3415,  3587,  3594,  3657,  3708,  3765,  3792,  3797,  3799,  3831,  3839,  3847,  4021,  4033,  4041
  4043,  4203,  4285,  4377,  4378,  4395,  4448,  4463,  4467,  4507,  4528,  4537,  4571,  4588,  4651,  4681
  4695,  4733,  4798,  4823,  4869,  4949,  5003,  5117,  5155,  5167,  5301,  5331,  5350,  5386,  5524,  5636
  5697,  5852,  5861,  5898,  6060,  6204,  6218,  6222,  6232,  6286,  6307,  6475,  6521,  6553,  6588,  6644
  6721,  6726,  6738,  6782,  6788,  6896,  6900,  6909,  6912,  6942,  6973,  7072,  7101,  7103,  7106,  7205
  7244,  7253,  7255,  7261,  7409,  7460,  7464,  7568,  7583,  7584,  7721,  7749,  7763,  7812,  7840,  7858
  7861,  7899,  7908,  7924,  7979,  7981,  8028,  8118,  8133,  8134,  8186,  8251,  8292,  8299,  8324,  8337
  8357,  8469,  8528,  8565,  8569,  8594,  8598,  8614,  8684,  8728,  8758,  8796,  8930,  8958,  9106,  9321
  9327,  9429,  9453,  9466,  9478,  9490,  9537,  9545,  9591,  9599,  9640,  9666,  9875,  9933,  9972, 10027
 10032, 10072, 10088, 10092, 10161, 10254, 10259, 10311, 10313, 10354, 10366, 10501, 10505, 10519, 10572, 10611
 10616, 10643, 10708, 10734, 10741, 10744, 10851, 10861, 10886, 10951, 11099, 11144, 11214, 11331, 11355, 11362
 11372, 11520, 11564, 11580, 11590, 11615, 11643, 11770, 11867, 11953, 12015, 12074, 12086, 12087, 12117, 12124
 12240, 12282, 12336, 12488, 12564, 12620, 12662, 12703, 12735, 12741, 12744, 12748, 12760, 12764, 12765, 12766
 12770, 12778, 12782, 12784, 12800, 12804, 12814, 12818, 12830, 12832, 12852, 12853, 12859, 12895, 12924, 12926
 12943, 12944, 12947, 12950, 12953, 12962, 12968, 12972, 12981, 12986, 12990, 12997, 12998, 13001, 13010, 13018
 13021, 13022, 13024, 13025, 13026, 13033, 13050, 13056, 13062, 13064, 13065, 13068, 13089, 13115, 13121, 13122
** ... 583 like lines cut
*Nset, nset=surface_1_All
    13,    14,    15,    16,   502,   503,   504,   505,   506,   507,   508,   509,   510,   511,   512,   513
   514,   515,   516,   517,   518,   519,   520,   521,   522,   523,   524,   525,   526,   527,   528,   529
   530,   531,   532,   533,   534,   535,   536,   537,   538,   539,   540,   541,   542,   543,   544,   545
   546,   547,   548,   549,   550,   551,   552,   553,   554,   555,   556,   557,   558,   559,   560,   561
   562,   563,   564,   565,   566,   567,   568,   569,   570,   571,   572,   573,   574,   575,   576,   577
   578,   579,   580,   581,   582,   583,   584,   585,   586,   587,   588,   589,   590,   591,   592,   593
   594,   595,   596,   597,   598,   599,   600,   601,   602,   603,   604,   605,   606,   607,   608,   609
   610,   611,   612,   613,   614,   615,   616,   617,   618,   619,   620,   621,   622,   623,   624,   625
   626,   627,   628,   629,   630,   631,   632,   633,   634,   635,   636,   637,   638,   639,   640,   641
   642,   643,   644,  8635,  8636,  8637,  8638,  8639,  8640,  8641,  8642,  8643,  8644,  8645,  8646,  8647
  8648,  8649,  8650,  8651,  8652,  8653,  8654,  8655,  8656,  8657,  8658,  8659,  8660,  8661,  8662,  8663
  8664,  8665,  8666,  8667,  8668,  8669,  8670,  8671,  8672,  8673,  8674,  8675,  8676,  8677,  8678,  8679
  8680,  8681,  8682,  8683,  8684,  8685,  8686,  8687,  8688,  8689,  8690,  8691,  8692,  8693,  8694,  8695
  8696,  8697,  8698,  8699,  8700,  8701,  8702,  8703,  8704,  8705,  8706,  8707,  8708,  8709,  8710,  8711
  8712,  8713,  8714,  8715,  8716,  8717,  8718,  8719,  8720,  8721,  8722,  8723,  8724,  8725,  8726,  8727
  8728,  8729,  8730,  8731,  8732,  8733,  8734,  8735,  8736,  8737,  8738,  8739,  8740,  8741,  8742,  8743
  8744,  8745,  8746,  8747,  8748,  8749,  8750,  8751,  8752,  8753,  8754,  8755,  8756,  8757,  8758,  8759
  8760,  8761,  8762,  8763,  8764,  8765,  8766,  8767,  8768,  8769,  8770,  8771,  8772,  8773,  8774,  8775
  8776,  8777,  8778,  8779,  8780,  8781,  8782,  8783,  8784,  8785,  8786,  8787,  8788,  8789,  8790,  8791
  8792,  8793,  8794,  8795,  8796,  8797,  8798,  8799,  8800,  8801,  8802,  8803,  8804,  8805,  8806,  8807
** ... 148 like lines cut
*Elset, elset=surface_1_All
   144,   291,   449,   474,   504,   520,   590,   650,   662,   667,   749,   991,  1160,  1188,  1189,  1200
  1211,  1230,  1244,  1266,  1271,  1282,  1348,  1376,  1395,  1459,  1477,  1500,  1528,  1560,  1640,  1645
  1765,  1777,  1855,  1875,  1889,  1977,  2001,  2014,  2077,  2178,  2193,  2200,  2213,  2224,  2229,  2233
  2283,  2285,  2292,  2322,  2323,  2331,  2333,  2338,  2360,  2457,  2482,  2494,  2495,  2546,  2547,  2678
  2682,  2714,  2731,  2757,  2823,  2836,  2839,  2928,  2951,  2987,  2998,  3031,  3062,  3168,  3202,  3205
  3232,  3240,  3250,  3293,  3299,  3307,  3339,  3356,  3378,  3379,  3396,  3401,  3408,  3433,  3440,  3454
  3473,  3478,  3483,  3496,  3523,  3537,  3695,  3745,  3747,  3757,  3776,  3785,  3788,  3828,  3830,  3836
  3848,  3870,  3883,  3908,  3925,  3942,  3997,  4001,  4034,  4061,  4095,  4118,  4213,  4224,  4229,  4237
  4258,  4278,  4331,  4336,  4347,  4394,  4457,  4472,  4513,  4554,  4559,  4568,  4578,  4592,  4599,  4640
  4655,  4696,  4734,  4745,  4747,  4749,  4776,  4788,  4830,  4840,  4897,  4931,  4941,  4975,  4983,  4988
  4993,  5046,  5088,  5095,  5099,  5130,  5139,  5178,  5190,  5199,  5203,  5218,  5221,  5266,  5267,  5277
  5313,  5330,  5412,  5511,  5526,  5527,  5569,  5579,  5585,  5612,  5631,  5643,  5692,  5695,  5713,  5714
  5769,  5849,  5854,  5886,  5900,  5952,  5964,  5966,  5988,  5989,  6040,  6063,  6081,  6106,  6111,  6126
  6155,  6174,  6197,  6200,  6262,  6305,  6348,  6357,  6436,  6459,  6463,  6472,  6499,  6513,  6517,  6527
  6580,  6621,  6681,  6711,  6757,  6771,  6780,  6814,  6872,  6889,  6923,  6932,  6984,  6988,  7018,  7042
  7058,  7068,  7075,  7113,  7116,  7118,  7158,  7169,  7170,  7195,  7207,  7210,  7257,  7302,  7321,  7376
  7401,  7448,  7485,  7499,  7506,  7513,  7535,  7580,  7591,  7638,  7692,  7726,  7750,  7818,  7820,  7877
  7906,  7975,  7984,  8000,  8016,  8017,  8054,  8089,  8139,  8158,  8162,  8164,  8198,  8203,  8221,  8268
  8290,  8314,  8320,  8352,  8393,  8433,  8435,  8531,  8541,  8555,  8599,  8601,  8605,  8662,  8675,  8685
  8749,  8778,  8815,  8819,  8824,  8842,  8854,  8920,  8941,  8945,  8963,  9013,  9015,  9026,  9032,  9054
** ... 315 like lines cut
*Nset, nset=surface_1_Head
   13,   14,  502,  503,  504,  505,  506,  507,  508,  509,  510,  511,  512,  513,  514,  515
  516,  517,  518,  519,  520,  521,  522, 8635, 8636, 8637, 8638, 8639, 8640, 8641, 8642, 8643
*Elset, elset=surface_1_Head
  2331,  2333,  3908,  4830,  4840, 11558, 12727, 12892, 14558, 15703, 16240, 16488, 19528, 19958, 24325, 24506
 40632, 42206, 42494, 48808, 56262, 56267, 66693, 69649, 69673, 69683, 69685, 69704, 69708, 69731, 69744, 69745
 69761, 69778, 69780, 69788, 69793, 69807, 69854
*Nset, nset=surface_1_Bottom
    15,    16,   577,   578,   579,   580,   581,   582,   583,   638,   639,   640,   641,   642,   643,   644
 11153, 11154, 11155, 11156, 11157, 11158, 11159, 11160, 11161, 11162, 11163, 11164, 11165, 11166, 11167, 11168
*Elset, elset=surface_1_Bottom
   449,   520,   590,   991,  1230,  1459,  1889,  2731,  3250,  3408,  3478,  3483,  3496,  4001,  6517,  7158
  8749,  8815,  8819,  9565,  9567, 13153, 18684, 20776, 33702, 40181, 41121, 41495, 43052, 43848, 43855, 43887
 46367, 46374, 48398, 65150, 65154, 66196, 66210, 66812, 67906, 71571, 71741, 71769, 71772, 71795
*Nset, nset=surface_1_Lateral
    13,    14,    15,    16,   502,   503,   504,   505,   506,   507,   508,   509,   510,   511,   512,   513
   514,   515,   516,   517,   518,   519,   520,   521,   522,   523,   524,   525,   526,   527,   528,   529
   530,   531,   532,   533,   534,   535,   536,   537,   538,   539,   540,   541,   542,   543,   544,   545
   546,   547,   548,   549,   550,   551,   552,   553,   554,   555,   556,   557,   558,   559,   560,   561
   562,   563,   564,   565,   566,   567,   568,   569,   570,   571,   572,   573,   574,   575,   576,   577
   578,   579,   580,   581,   582,   583,   584,   585,   586,   587,   588,   589,   590,   591,   592,   593
   594,   595,   596,   597,   598,   599,   600,   601,   602,   603,   604,   605,   606,   607,   608,   609
   610,   611,   612,   613,   614,   615,   616,   617,   618,   619,   620,   621,   622,   623,   624,   625
   626,   627,   628,   629,   630,   631,   632,   633,   634,   635,   636,   637,   638,   639,   640,   641
   642,   643,   644,  8644,  8645,  8646,  8647,  8648,  8649,  8650,  8651,  8652,  8653,  8654,  8655,  8656
  8657,  8658,  8659,  8660,  8661,  8662,  8663,  8664,  8665,  8666,  8667,  8668,  8669,  8670,  8671,  8672
  8673,  8674,  8675,  8676,  8677,  8678,  8679,  8680,  8681,  8682,  8683,  8684,  8685,  8686,  8687,  8688
  8689,  8690,  8691,  8692,  8693,  8694,  8695,  8696,  8697,  8698,  8699,  8700,  8701,  8702,  8703,  8704
  8705,  8706,  8707,  8708,  8709,  8710,  8711,  8712,  8713,  8714,  8715,  8716,  8717,  8718,  8719,  8720
  8721,  8722,  8723,  8724,  8725,  8726,  8727,  8728,  8729,  8730,  8731,  8732,  8733,  8734,  8735,  8736
  8737,  8738,  8739,  8740,  8741,  8742,  8743,  8744,  8745,  8746,  8747,  8748,  8749,  8750,  8751,  8752
  8753,  8754,  8755,  8756,  8757,  8758,  8759,  8760,  8761,  8762,  8763,  8764,  8765,  8766,  8767,  8768
  8769,  8770,  8771,  8772,  8773,  8774,  8775,  8776,  8777,  8778,  8779,  8780,  8781,  8782,  8783,  8784
  8785,  8786,  8787,  8788,  8789,  8790,  8791,  8792,  8793,  8794,  8795,  8796,  8797,  8798,  8799,  8800
  8801,  8802,  8803,  8804,  8805,  8806,  8807,  8808,  8809,  8810,  8811,  8812,  8813,  8814,  8815,  8816
** ... 146 like lines cut
*Elset, elset=surface_1_Lateral
   144,   291,   474,   504,   650,   662,   667,   749,  1160,  1188,  1189,  1200,  1211,  1244,  1266,  1271
  1282,  1348,  1376,  1395,  1477,  1500,  1528,  1560,  1640,  1645,  1765,  1777,  1855,  1875,  1977,  2001
  2014,  2077,  2178,  2193,  2200,  2213,  2224,  2229,  2233,  2283,  2285,  2292,  2322,  2323,  2338,  2360
  2457,  2482,  2494,  2495,  2546,  2547,  2678,  2682,  2714,  2757,  2823,  2836,  2839,  2928,  2951,  2987
  2998,  3031,  3062,  3168,  3202,  3205,  3232,  3240,  3293,  3299,  3307,  3339,  3356,  3378,  3379,  3396
  3401,  3433,  3440,  3454,  3473,  3523,  3537,  3695,  3745,  3747,  3757,  3776,  3785,  3788,  3828,  3830
  3836,  3848,  3870,  3883,  3925,  3942,  3997,  4034,  4061,  4095,  4118,  4213,  4224,  4229,  4237,  4258
  4278,  4331,  4336,  4347,  4394,  4457,  4472,  4513,  4554,  4559,  4568,  4578,  4592,  4599,  4640,  4655
  4696,  4734,  4745,  4747,  4749,  4776,  4788,  4897,  4931,  4941,  4975,  4983,  4988,  4993,  5046,  5088
  5095,  5099,  5130,  5139,  5178,  5190,  5199,  5203,  5218,  5221,  5266,  5267,  5277,  5313,  5330,  5412
  5511,  5526,  5527,  5569,  5579,  5585,  5612,  5631,  5643,  5692,  5695,  5713,  5714,  5769,  5849,  5854
  5886,  5900,  5952,  5964,  5966,  5988,  5989,  6040,  6063,  6081,  6106,  6111,  6126,  6155,  6174,  6197
  6200,  6262,  6305,  6348,  6357,  6436,  6459,  6463,  6472,  6499,  6513,  6527,  6580,  6621,  6681,  6711
  6757,  6771,  6780,  6814,  6872,  6889,  6923,  6932,  6984,  6988,  7018,  7042,  7058,  7068,  7075,  7113
  7116,  7118,  7169,  7170,  7195,  7207,  7210,  7257,  7302,  7321,  7376,  7401,  7448,  7485,  7499,  7506
  7513,  7535,  7580,  7591,  7638,  7692,  7726,  7750,  7818,  7820,  7877,  7906,  7975,  7984,  8000,  8016
  8017,  8054,  8089,  8139,  8158,  8162,  8164,  8198,  8203,  8221,  8268,  8290,  8314,  8320,  8352,  8393
  8433,  8435,  8531,  8541,  8555,  8599,  8601,  8605,  8662,  8675,  8685,  8778,  8824,  8842,  8854,  8920
  8941,  8945,  8963,  9013,  9015,  9026,  9032,  9054,  9063,  9120,  9132,  9186,  9190,  9203,  9246,  9250
  9257,  9264,  9266,  9274,  9275,  9283,  9284,  9289,  9312,  9335,  9351,  9357,  9371,  9391,  9420,  9421
** ... 310 like lines cut
*Nset, nset=surface_2_All
    9,   10,   11,   12,  359,  360,  361,  362,  363,  364,  365,  366,  367,  368,  369,  370
  371,  372,  373,  374,  375,  376,  377,  378,  379,  380,  381,  382,  383,  384,  385,  386
  387,  388,  389,  390,  391,  392,  393,  394,  395,  396,  397,  398,  399,  400,  401,  402
  403,  404,  405,  406,  407,  408,  409,  410,  411,  412,  413,  414,  415,  416,  417,  418
  419,  420,  421,  422,  423,  424,  425,  426,  427,  428,  429,  430,  431,  432,  433,  434
  435,  436,  437,  438,  439,  440,  441,  442,  443,  444,  445,  446,  447,  448,  449,  450
  451,  452,  453,  454,  455,  456,  457,  458,  459,  460,  461,  462,  463,  464,  465,  466
  467,  468,  469,  470,  471,  472,  473,  474,  475,  476,  477,  478,  479,  480,  481,  482
  483,  484,  485,  486,  487,  488,  489,  490,  491,  492,  493,  494,  495,  496,  497,  498
  499,  500,  501, 6097, 6098, 6099, 6100, 6101, 6102, 6103, 6104, 6105, 6106, 6107, 6108, 6109
 6110, 6111, 6112, 6113, 6114, 6115, 6116, 6117, 6118, 6119, 6120, 6121, 6122, 6123, 6124, 6125
 6126, 6127, 6128, 6129, 6130, 6131, 6132, 6133, 6134, 6135, 6136, 6137, 6138, 6139, 6140, 6141
 6142, 6143, 6144, 6145, 6146, 6147, 6148, 6149, 6150, 6151, 6152, 6153, 6154, 6155, 6156, 6157
 6158, 6159, 6160, 6161, 6162, 6163, 6164, 6165, 6166, 6167, 6168, 6169, 6170, 6171, 6172, 6173
 6174, 6175, 6176, 6177, 6178, 6179, 6180, 6181, 6182, 6183, 6184, 6185, 6186, 6187, 6188, 6189
 6190, 6191, 6192, 6193, 6194, 6195, 6196, 6197, 6198, 6199, 6200, 6201, 6202, 6203, 6204, 6205
 6206, 6207, 6208, 6209, 6210, 6211, 6212, 6213, 6214, 6215, 6216, 6217, 6218, 6219, 6220, 6221
 6222, 6223, 6224, 6225, 6226, 6227, 6228, 6229, 6230, 6231, 6232, 6233, 6234, 6235, 6236, 6237
 6238, 6239, 6240, 6241, 6242, 6243, 6244, 6245, 6246, 6247, 6248, 6249, 6250, 6251, 6252, 6253
 6254, 6255, 6256, 6257, 6258, 6259, 6260, 6261, 6262, 6263, 6264, 6265, 6266, 6267, 6268, 6269
** ... 148 like lines cut
*Elset, elset=surface_2_All
    54,    75,   154,   210,   271,   272,   353,   572,   624,   626,   818,   839,   896,  1056,  1128,  1293
  1438,  1493,  1959,  2147,  2518,  2616,  2688,  2769,  2784,  2925,  2991,  2996,  3037,  3122,  3255,  3258
  3320,  3328,  3380,  3514,  3570,  3583,  3622,  3802,  3803,  3851,  3913,  4014,  4254,  4276,  4284,  4493
  4594,  4676,  4677,  4710,  4713,  4768,  4800,  4814,  4832,  4851,  4856,  4917,  5040,  5041,  5145,  5204
  5223,  5232,  5235,  5236,  5315,  5362,  5410,  5444,  5491,  5494,  5499,  5562,  5584,  5645,  5654,  5687
  5757,  5843,  5847,  5915,  6031,  6108,  6135,  6168,  6328,  6433,  6563,  6641,  6649,  6650,  6655,  6708
  6787,  6790,  6969,  7070,  7087,  7090,  7217,  7326,  7339,  7347,  7349,  7372,  7388,  7498,  7531,  7600
  7630,  7668,  7699,  7701,  7816,  7819,  7862,  7871,  7887,  7917,  8119,  8124,  8146,  8194,  8249,  8296
  8303,  8316,  8349,  8409,  8442,  8452,  8453,  8497,  8686,  8747,  9000,  9003,  9006,  9124,  9135,  9177
  9265,  9288,  9294,  9323,  9324,  9325,  9386,  9401,  9405,  9463,  9492,  9495,  9679,  9680,  9736,  9787
  9817,  9857,  9983,  9987,  9988, 10059, 10068, 10070, 10292, 10329, 10379, 10430, 10470, 10487, 10563, 10583
 10595, 10624, 10640, 10665, 10669, 10692, 10719, 10721, 10724, 10729, 10790, 10793, 10833, 10856, 10863, 10864
 10866, 10914, 10915, 10932, 11114, 11134, 11156, 11194, 11196, 11236, 11264, 11280, 11350, 11402, 11444, 11563
 11585, 11599, 11670, 11674, 11837, 11899, 11941, 11980, 12000, 12012, 12023, 12230, 12285, 12318, 12325, 12383
 12390, 12396, 12445, 12524, 12614, 12628, 12636, 12641, 12649, 12682, 12728, 12856, 12865, 12871, 12960, 12961
 12965, 13019, 13066, 13073, 13116, 13125, 13126, 13129, 13136, 13138, 13140, 13163, 13170, 13221, 13268, 13273
 13280, 13295, 13303, 13304, 13315, 13329, 13358, 13374, 13408, 13431, 13433, 13449, 13480, 13494, 13508, 13540
 13548, 13551, 13574, 13576, 13596, 13628, 13695, 13703, 13708, 13713, 13765, 13770, 13805, 13843, 13900, 13905
 13908, 13929, 13945, 13986, 14015, 14041, 14058, 14071, 14072, 14091, 14094, 14150, 14179, 14182, 14186, 14191
 14216, 14233, 14237, 14245, 14249, 14273, 14276, 14308, 14312, 14314, 14361, 14373, 14374, 14388, 14392, 14394
** ... 315 like lines cut
*Nset, nset=surface_2_Head
   11,   12,  427,  428,  429,  430,  431,  432,  433,  434,  435,  436,  491,  492,  493,  494
  495,  496,  497,  498,  499,  500,  501, 8623, 8624, 8625, 8626, 8627, 8628, 8629, 8630, 8631
 8632, 8633, 8634
*Elset, elset=surface_2_Head
   271,  4710,  8194, 12000, 12325, 12524, 13268, 16617, 24705, 28927, 38818, 50700, 54418, 54987, 55087, 55102
 55116, 55117, 55120, 55125, 55352, 57323, 57345, 57357, 59520, 59539, 63624, 63642, 63679, 63794, 63804, 63809
 63852, 63888, 64734, 64739, 64747, 69582, 69594, 69596, 69598, 69604, 69611, 69622, 69625
*Nset, nset=surface_2_Bottom
    9,   10,  359,  360,  361,  362,  363,  364,  365,  366,  367,  368,  369,  370,  371,  372
 6097, 6098, 6099, 6100, 6101, 6102, 6103, 6104, 6105, 6106, 6107, 6108, 6109, 6110, 6111, 6112
 6113,
*Elset, elset=surface_2_Bottom
  6168,  7498,  8316,  9679,  9680, 14237, 14361, 22527, 22823, 33528, 35764, 38849, 38855, 45609, 47714, 47725
 47839, 48042, 48103, 48471, 48634, 48644, 50991, 50995, 52161, 52175, 52189, 52190, 52201, 52202, 52203, 52210
 52223, 52226, 52246, 52260, 52271, 52304, 52313, 52327, 52330, 52331, 52333, 52338, 52351, 62721, 64627, 64629
*Nset, nset=surface_2_Lateral
    9,   10,   11,   12,  359,  360,  361,  362,  363,  364,  365,  366,  367,  368,  369,  370
  371,  372,  373,  374,  375,  376,  377,  378,  379,  380,  381,  382,  383,  384,  385,  386
  387,  388,  389,  390,  391,  392,  393,  394,  395,  396,  397,  398,  399,  400,  401,  402
  403,  404,  405,  406,  407,  408,  409,  410,  411,  412,  413,  414,  415,  416,  417,  418
  419,  420,  421,  422,  423,  424,  425,  426,  427,  428,  429,  430,  431,  432,  433,  434
  435,  436,  437,  438,  439,  440,  441,  442,  443,  444,  445,  446,  447,  448,  449,  450
  451,  452,  453,  454,  455,  456,  457,  458,  459,  460,  461,  462,  463,  464,  465,  466
  467,  468,  469,  470,  471,  472,  473,  474,  475,  476,  477,  478,  479,  480,  481,  482
  483,  484,  485,  486,  487,  488,  489,  490,  491,  492,  493,  494,  495,  496,  497,  498
  499,  500,  501, 6114, 6115, 6116, 6117, 6118, 6119, 6120, 6121, 6122, 6123, 6124, 6125, 6126
 6127, 6128, 6129, 6130, 6131, 6132, 6133, 6134, 6135, 6136, 6137, 6138, 6139, 6140, 6141, 6142
 6143, 6144, 6145, 6146, 6147, 6148, 6149, 6150, 6151, 6152, 6153, 6154, 6155, 6156, 6157, 6158
 6159, 6160, 6161, 6162, 6163, 6164, 6165, 6166, 6167, 6168, 6169, 6170, 6171, 6172, 6173, 6174
 6175, 6176, 6177, 6178, 6179, 6180, 6181, 6182, 6183, 6184, 6185, 6186, 6187, 6188, 6189, 6190
 6191, 6192, 6193, 6194, 6195, 6196, 6197, 6198, 6199, 6200, 6201, 6202, 6203, 6204, 6205, 6206
 6207, 6208, 6209, 6210, 6211, 6212, 6213, 6214, 6215, 6216, 6217, 6218, 6219, 6220, 6221, 6222
 6223, 6224, 6225, 6226, 6227, 6228, 6229, 6230, 6231, 6232, 6233, 6234, 6235, 6236, 6237, 6238
 6239, 6240, 6241, 6242, 6243, 6244, 6245, 6246, 6247, 6248, 6249, 6250, 6251, 6252, 6253, 6254
 6255, 6256, 6257, 6258, 6259, 6260, 6261, 6262, 6263, 6264, 6265, 6266, 6267, 6268, 6269, 6270
 6271, 6272, 6273, 6274, 6275, 6276, 6277, 6278, 6279, 6280, 6281, 6282, 6283, 6284, 6285, 6286
** ... 146 like lines cut
*Elset, elset=surface_2_Lateral
    54,    75,   154,   210,   272,   353,   572,   624,   626,   818,   839,   896,  1056,  1128,  1293,  1438
  1493,  1959,  2147,  2518,  2616,  2688,  2769,  2784,  2925,  2991,  2996,  3037,  3122,  3255,  3258,  3320
  3328,  3380,  3514,  3570,  3583,  3622,  3802,  3803,  3851,  3913,  4014,  4254,  4276,  4284,  4493,  4594
  4676,  4677,  4713,  4768,  4800,  4814,  4832,  4851,  4856,  4917,  5040,  5041,  5145,  5204,  5223,  5232
  5235,  5236,  5315,  5362,  5410,  5444,  5491,  5494,  5499,  5562,  5584,  5645,  5654,  5687,  5757,  5843
  5847,  5915,  6031,  6108,  6135,  6328,  6433,  6563,  6641,  6649,  6650,  6655,  6708,  6787,  6790,  6969
  7070,  7087,  7090,  7217,  7326,  7339,  7347,  7349,  7372,  7388,  7531,  7600,  7630,  7668,  7699,  7701
  7816,  7819,  7862,  7871,  7887,  7917,  8119,  8124,  8146,  8249,  8296,  8303,  8349,  8409,  8442,  8452
  8453,  8497,  8686,  8747,  9000,  9003,  9006,  9124,  9135,  9177,  9265,  9288,  9294,  9323,  9324,  9325
  9386,  9401,  9405,  9463,  9492,  9495,  9736,  9787,  9817,  9857,  9983,  9987,  9988, 10059, 10068, 10070
 10292, 10329, 10379, 10430, 10470, 10487, 10563, 10583, 10595, 10624, 10640, 10665, 10669, 10692, 10719, 10721
 10724, 10729, 10790, 10793, 10833, 10856, 10863, 10864, 10866, 10914, 10915, 10932, 11114, 11134, 11156, 11194
 11196, 11236, 11264, 11280, 11350, 11402, 11444, 11563, 11585, 11599, 11670, 11674, 11837, 11899, 11941, 11980
 12012, 12023, 12230, 12285, 12318, 12383, 12390, 12396, 12445, 12614, 12628, 12636, 12641, 12649, 12682, 12728
 12856, 12865, 12871, 12960, 12961, 12965, 13019, 13066, 13073, 13116, 13125, 13126, 13129, 13136, 13138, 13140
 13163, 13170, 13221, 13273, 13280, 13295, 13303, 13304, 13315, 13329, 13358, 13374, 13408, 13431, 13433, 13449
 13480, 13494, 13508, 13540, 13548, 13551, 13574, 13576, 13596, 13628, 13695, 13703, 13708, 13713, 13765, 13770
 13805, 13843, 13900, 13905, 13908, 13929, 13945, 13986, 14015, 14041, 14058, 14071, 14072, 14091, 14094, 14150
 14179, 14182, 14186, 14191, 14216, 14233, 14245, 14249, 14273, 14276, 14308, 14312, 14314, 14373, 14374, 14388
 14392, 14394, 14401, 14403, 14408, 14423, 14458, 14474, 14476, 14488, 14494, 14496, 14506, 14508, 14521, 14529
** ... 309 like lines cut
*Nset, nset=surface_3_All
    5,    6,    7,    8,  265,  266,  267,  268,  269,  270,  271,  272,  273,  274,  275,  276
  277,  278,  279,  280,  281,  282,  283,  284,  285,  286,  287,  288,  289,  290,  291,  292
  293,  294,  295,  296,  297,  298,  299,  300,  301,  302,  303,  304,  305,  306,  307,  308
  309,  310,  311,  312,  313,  314,  315,  316,  317,  318,  319,  320,  321,  322,  323,  324
  325,  326,  327,  328,  329,  330,  331,  332,  333,  334,  335,  336,  337,  338,  339,  340
  341,  342,  343,  344,  345,  346,  347,  348,  349,  350,  351,  352,  353,  354,  355,  356
  357,  358, 5686, 5687, 5688, 5689, 5690, 5691, 5692, 5693, 5694, 5695, 5696, 5697, 5698, 5699
 5700, 5701, 5702, 5703, 5704, 5705, 5706, 5707, 5708, 5709, 5710, 5711, 5712, 5713, 5714, 5715
 5716, 5717, 5718, 5719, 5720, 5721, 5722, 5723, 5724, 5725, 5726, 5727, 5728, 5729, 5730, 5731
 5732, 5733, 5734, 5735, 5736, 5737, 5738, 5739, 5740, 5741, 5742, 5743, 5744, 5745, 5746, 5747
 5748, 5749, 5750, 5751, 5752, 5753, 5754, 5755, 5756, 5757, 5758, 5759, 5760, 5761, 5762, 5763
 5764, 5765, 5766, 5767, 5768, 5769, 5770, 5771, 5772, 5773, 5774, 5775, 5776, 5777, 5778, 5779
 5780, 5781, 5782, 5783, 5784, 5785, 5786, 5787, 5788, 5789, 5790, 5791, 5792, 5793, 5794, 5795
 5796, 5797, 5798, 5799, 5800, 5801, 5802, 5803, 5804, 5805, 5806, 5807, 5808, 5809, 5810, 5811
 5812, 5813, 5814, 5815, 5816, 5817, 5818, 5819, 5820, 5821, 5822, 5823, 5824, 5825, 5826, 5827
 5828, 5829, 5830, 5831, 5832, 5833, 5834, 5835, 5836, 5837, 5838, 5839, 5840, 5841, 5842, 5843
 5844, 5845, 5846, 5847, 5848, 5849, 5850, 5851, 5852, 5853, 5854, 5855, 5856, 5857, 5858, 5859
 5860, 5861, 5862, 5863, 5864, 5865, 5866, 5867, 5868, 5869, 5870, 5871, 5872, 5873, 5874, 5875
 5876, 5877, 5878, 5879, 5880, 5881, 5882, 5883, 5884, 5885, 5886, 5887, 5888, 5889, 5890, 5891
 5892, 5893, 5894, 5895, 5896, 5897, 5898, 5899, 5900, 5901, 5902, 5903, 5904, 5905, 5906, 5907
** ... 12 like lines cut
*Elset, elset=surface_3_All
   262,  1894,  2471,  3095,  3229,  3916,  4191,  4561,  6365,  9192,  9387, 10386, 11751, 12314, 13131, 13132
 13241, 13503, 13671, 13831, 13850, 14029, 14039, 14044, 14050, 14143, 14144, 14258, 14348, 14353, 14362, 14402
 14407, 14439, 14440, 14451, 14581, 14582, 14639, 14644, 14648, 14679, 14682, 14736, 14738, 14753, 14809, 14812
 14845, 14922, 15083, 15399, 16325, 16373, 16399, 16562, 16916, 17537, 18564, 18802, 19089, 19463, 19487, 19637
 19686, 19845, 20982, 21056, 21157, 21254, 21279, 21468, 21923, 22004, 23297, 23662, 23663, 23843, 23871, 24475
 24485, 24503, 24524, 24525, 24553, 24663, 24664, 24674, 24820, 24895, 25611, 25665, 25830, 26401, 27756, 28022
 28859, 29339, 29890, 30199, 30202, 30213, 30568, 30753, 31096, 32311, 32893, 33196, 33874, 34403, 34409, 34446
 34938, 34959, 34991, 35006, 35343, 35348, 35349, 35492, 35508, 35553, 35599, 35796, 35814, 35998, 36563, 37036
 37265, 37295, 37352, 37365, 37425, 37780, 38311, 38544, 38548, 38577, 38724, 38730, 38742, 38761, 39421, 39562
 39612, 39800, 40145, 40565, 40943, 41279, 41416, 42371, 42563, 42578, 42641, 42674, 43073, 43325, 43980, 44312
 44378, 44393, 44439, 44527, 44533, 44536, 44575, 44678, 45972, 46029, 46439, 46489, 47317, 47712, 47894, 47984
 48071, 48082, 48287, 48385, 48456, 48511, 48530, 48573, 48637, 48677, 48702, 48726, 48730, 48731, 48743, 48749
 48755, 48758, 48765, 48777, 48780, 48793, 48800, 48834, 48846, 48848, 48875, 48890, 48894, 48902, 48906, 48912
 48927, 48937, 48941, 48944, 48946, 48948, 48954, 48956, 48959, 48970, 48977, 48982, 48985, 48987, 48999, 49001
 49003, 49007, 49032, 49056, 49071, 49085, 49087, 49090, 49098, 49104, 49115, 49117, 49122, 49125, 49140, 49145
 49148, 49150, 49158, 49160, 49162, 49178, 49186, 49188, 49207, 49213, 49215, 49216, 49248, 49260, 49265, 49275
 49290, 49291, 49293, 49298, 49300, 49303, 49306, 49307, 49314, 49318, 49324, 49326, 49331, 49338, 49344, 49352
 49354, 49355, 49365, 49368, 49372, 49374, 49382, 49385, 49391, 49402, 49415, 49422, 49424, 49425, 49429, 49434
 49439, 49441, 49442, 49463, 49469, 49473, 49475, 49479, 49481, 49494, 49497, 49504, 49509, 49515, 49523, 49530
 49533, 49534, 49539, 49540, 49555, 49556, 49558, 49564, 49577, 49585, 49588, 49589, 49593, 49606, 49621, 49627
** ... 44 like lines cut
*Nset, nset=surface_3_Head
    5,    6,  265,  266,  267,  268,  269,  270, 5686, 5687, 5688
*Elset, elset=surface_3_Head
 16373, 16399, 16562, 44378, 48730, 48743, 48749, 48755, 48758, 48780, 48793, 48800
*Nset, nset=surface_3_Bottom
    7,    8,  312,  313,  314,  356,  357,  358, 5892, 5893, 5894
*Elset, elset=surface_3_Bottom
 10386, 30199, 30202, 47712, 49757, 49759, 49765, 49781, 50756, 50768, 50769, 57319
*Nset, nset=surface_3_Lateral
    5,    6,    7,    8,  265,  266,  267,  268,  269,  270,  271,  272,  273,  274,  275,  276
  277,  278,  279,  280,  281,  282,  283,  284,  285,  286,  287,  288,  289,  290,  291,  292
  293,  294,  295,  296,  297,  298,  299,  300,  301,  302,  303,  304,  305,  306,  307,  308
  309,  310,  311,  312,  313,  314,  315,  316,  317,  318,  319,  320,  321,  322,  323,  324
  325,  326,  327,  328,  329,  330,  331,  332,  333,  334,  335,  336,  337,  338,  339,  340
  341,  342,  343,  344,  345,  346,  347,  348,  349,  350,  351,  352,  353,  354,  355,  356
  357,  358, 5689, 5690, 5691, 5692, 5693, 5694, 5695, 5696, 5697, 5698, 5699, 5700, 5701, 5702
 5703, 5704, 5705, 5706, 5707, 5708, 5709, 5710, 5711, 5712, 5713, 5714, 5715, 5716, 5717, 5718
 5719, 5720, 5721, 5722, 5723, 5724, 5725, 5726, 5727, 5728, 5729, 5730, 5731, 5732, 5733, 5734
 5735, 5736, 5737, 5738, 5739, 5740, 5741, 5742, 5743, 5744, 5745, 5746, 5747, 5748, 5749, 5750
 5751, 5752, 5753, 5754, 5755, 5756, 5757, 5758, 5759, 5760, 5761, 5762, 5763, 5764, 5765, 5766
 5767, 5768, 5769, 5770, 5771, 5772, 5773, 5774, 5775, 5776, 5777, 5778, 5779, 5780, 5781, 5782
 5783, 5784, 5785, 5786, 5787, 5788, 5789, 5790, 5791, 5792, 5793, 5794, 5795, 5796, 5797, 5798
 5799, 5800, 5801, 5802, 5803, 5804, 5805, 5806, 5807, 5808, 5809, 5810, 5811, 5812, 5813, 5814
 5815, 5816, 5817, 5818, 5819, 5820, 5821, 5822, 5823, 5824, 5825, 5826, 5827, 5828, 5829, 5830
 5831, 5832, 5833, 5834, 5835, 5836, 5837, 5838, 5839, 5840, 5841, 5842, 5843, 5844, 5845, 5846
 5847, 5848, 5849, 5850, 5851, 5852, 5853, 5854, 5855, 5856, 5857, 5858, 5859, 5860, 5861, 5862
 5863, 5864, 5865, 5866, 5867, 5868, 5869, 5870, 5871, 5872, 5873, 5874, 5875, 5876, 5877, 5878
 5879, 5880, 5881, 5882, 5883, 5884, 5885, 5886, 5887, 5888, 5889, 5890, 5891, 5895, 5896, 5897
 5898, 5899, 5900, 5901, 5902, 5903, 5904, 5905, 5906, 5907, 5908, 5909, 5910, 5911, 5912, 5913
** ... 12 like lines cut
*Elset, elset=surface_3_Lateral
   262,  1894,  2471,  3095,  3229,  3916,  4191,  4561,  6365,  9192,  9387, 11751, 12314, 13131, 13132, 13241
 13503, 13671, 13831, 13850, 14029, 14039, 14044, 14050, 14143, 14144, 14258, 14348, 14353, 14362, 14402, 14407
 14439, 14440, 14451, 14581, 14582, 14639, 14644, 14648, 14679, 14682, 14736, 14738, 14753, 14809, 14812, 14845
 14922, 15083, 15399, 16325, 16916, 17537, 18564, 18802, 19089, 19463, 19487, 19637, 19686, 19845, 20982, 21056
 21157, 21254, 21279, 21468, 21923, 22004, 23297, 23662, 23663, 23843, 23871, 24475, 24485, 24503, 24524, 24525
 24553, 24663, 24664, 24674, 24820, 24895, 25611, 25665, 25830, 26401, 27756, 28022, 28859, 29339, 29890, 30213
 30568, 30753, 31096, 32311, 32893, 33196, 33874, 34403, 34409, 34446, 34938, 34959, 34991, 35006, 35343, 35348
 35349, 35492, 35508, 35553, 35599, 35796, 35814, 35998, 36563, 37036, 37265, 37295, 37352, 37365, 37425, 37780
 38311, 38544, 38548, 38577, 38724, 38730, 38742, 38761, 39421, 39562, 39612, 39800, 40145, 40565, 40943, 41279
 41416, 42371, 42563, 42578, 42641, 42674, 43073, 43325, 43980, 44312, 44393, 44439, 44527, 44533, 44536, 44575
 44678, 45972, 46029, 46439, 46489, 47317, 47894, 47984, 48071, 48082, 48287, 48385, 48456, 48511, 48530, 48573
 48637, 48677, 48702, 48726, 48731, 48765, 48777, 48834, 48846, 48848, 48875, 48890, 48894, 48902, 48906, 48912
 48927, 48937, 48941, 48944, 48946, 48948, 48954, 48956, 48959, 48970, 48977, 48982, 48985, 48987, 48999, 49001
 49003, 49007, 49032, 49056, 49071, 49085, 49087, 49090, 49098, 49104, 49115, 49117, 49122, 49125, 49140, 49145
 49148, 49150, 49158, 49160, 49162, 49178, 49186, 49188, 49207, 49213, 49215, 49216, 49248, 49260, 49265, 49275
 49290, 49291, 49293, 49298, 49300, 49303, 49306, 49307, 49314, 49318, 49324, 49326, 49331, 49338, 49344, 49352
 49354, 49355, 49365, 49368, 49372, 49374, 49382, 49385, 49391, 49402, 49415, 49422, 49424, 49425, 49429, 49434
 49439, 49441, 49442, 49463, 49469, 49473, 49475, 49479, 49481, 49494, 49497, 49504, 49509, 49515, 49523, 49530
 49533, 49534, 49539, 49540, 49555, 49556, 49558, 49564, 49577, 49585, 49588, 49589, 49593, 49606, 49621, 49627
 49628, 49630, 49632, 49633, 49634, 49640, 49642, 49648, 49651, 49656, 49661, 49667, 49676, 49682, 49684, 49686
** ... 42 like lines cut
*Nset, nset=RubberSet, generate
     1,  17864,      1
*Elset, elset=RubberSet, generate
     1,  74412,      1
*Elset, elset=_surface_0_All_S3, internal
    89,   327,   344,   352,   377,   427,   546,   547,   867,   880,   934,   936,   984,  1236,  1499,  1555
  1569,  1573,  1658,  1680,  1763,  1944,  1972,  2085,  2287,  2302,  2367,  2420,  2440,  2555,  2762,  2816
  2848,  2907,  2919,  2940,  2989,  2997,  3096,  3115,  3241,  3336,  3364,  3367,  3415,  3517,  3587,  3594
  3657,  3708,  3765,  3799,  3839,  3847,  3906,  4021,  4033,  4043,  4169,  4174,  4212,  4285,  4377,  4395
  4463,  4467,  4528,  4571,  4588,  4651,  4733,  4798,  4823,  4869,  5003,  5117,  5155,  5167,  5290,  5331
  5350,  5697,  5727,  5852,  5861,  6060,  6218,  6222,  6232,  6307,  6475,  6521,  6553,  6900,  6909,  6920
  7106,  7244,  7255,  7261,  7407,  7721,  7763,  7812,  7840,  7899,  7924,  7979,  7981,  8028,  8118,  8134
  8186,  8251,  8299,  8324,  8337,  8357,  8533,  8565,  8594,  8598,  8614,  8684,  8758,  8796,  8930,  8964
  9106,  9321,  9347,  9429,  9453,  9478,  9537,  9545,  9640,  9666,  9933,  9972, 10027, 10032, 10092, 10161
 10254, 10259, 10311, 10313, 10354, 10366, 10501, 10519, 10611, 10708, 10734, 10741, 10851, 10861, 10886, 11013
 11144, 11214, 11228, 11355, 11362, 11372, 11520, 11564, 11590, 11615, 11643, 11770, 11953, 12086, 12087, 12117
 12124, 12240, 12282, 12336, 12488, 12564, 12620, 12662, 12703, 12735, 12741, 12744, 12748, 12760, 12764, 12765
 12766, 12770, 12771, 12778, 12781, 12782, 12784, 12800, 12804, 12813, 12814, 12818, 12830, 12832, 12850, 12851
 12852, 12853, 12859, 12878, 12893, 12895, 12905, 12924, 12926, 12943, 12944, 12947, 12950, 12953, 12962, 12968
 12972, 12986, 12990, 12997, 12998, 13001, 13010, 13018, 13021, 13022, 13024, 13025, 13033, 13050, 13056, 13062
 13064, 13065, 13068, 13072, 13089, 13115, 13121, 13122, 13133, 13137, 13139, 13141, 13147, 13150, 13155, 13171
 13172, 13174, 13175, 13183, 13184, 13188, 13196, 13200, 13204, 13205, 13206, 13209, 13210, 13212, 13215, 13216
 13227, 13230, 13236, 13240, 13242, 13245, 13246, 13253, 13265, 13267, 13282, 13289, 13305, 13307, 13323, 13327
 13330, 13332, 13341, 13343, 13345, 13347, 13364, 13375, 13380, 13382, 13383, 13395, 13396, 13398, 13413, 13415
 13419, 13424, 13425, 13428, 13436, 13439, 13450, 13455, 13456, 13457, 13458, 13476, 13479, 13484, 13485, 13486
** ... 564 like lines cut
*Elset, elset=_surface_0_All_S4, internal
    25,   369,   371,   377,   395,   406,   473,   847,   989,  1031,  1073,  1458,  1648,  1655,  1700,  1707
  2163,  2359,  2460,  2465,  2690,  2813,  3264,  3271,  3277,  3792,  3797,  3831,  4448,  4537,  4695,  4949
  5301,  5386,  5524,  5636,  5898,  6644,  6726,  6738,  6788,  6896,  6942,  6973,  7205,  7253,  7409,  7464
  7583,  7749,  7858,  7908,  8469,  8569,  8796,  8958,  9327,  9490,  9591,  9599, 10088, 10505, 10572, 10616
 10643, 11014, 11580, 11867, 12015, 12074, 12595, 12870, 12883, 12981, 13128, 13318, 13365, 13379, 13502, 13517
 13552, 13583, 13594, 13688, 13742, 13895, 13924, 14006, 14106, 14467, 14871, 14920, 14925, 14932, 15013, 15026
 15064, 15094, 15114, 15117, 15167, 15234, 15312, 15324, 15366, 15387, 15502, 15527, 15656, 15666, 15861, 15904
 15917, 15941, 15975, 16032, 16037, 16143, 16199, 16452, 16516, 16531, 16586, 16595, 16625, 16706, 16736, 16754
 16757, 17111, 17247, 17316, 17468, 17479, 17558, 17640, 17761, 17767, 17782, 18235, 18259, 18419, 18857, 18902
 18941, 19049, 19058, 19127, 19182, 19212, 19291, 19510, 19608, 19694, 19761, 19886, 19897, 19931, 20082, 20184
 20229, 20301, 20352, 20359, 20537, 20551, 20558, 20601, 20633, 20752, 20759, 20771, 20903, 21299, 21444, 21488
 21584, 21795, 21932, 22133, 22346, 22355, 22397, 22407, 22589, 22711, 22768, 22873, 23046, 23101, 23110, 23121
 23170, 23693, 23793, 23886, 24100, 24195, 24438, 24468, 24606, 24751, 24787, 24956, 25067, 25316, 25463, 25465
 25470, 25552, 25630, 25654, 25774, 26010, 26108, 26447, 26487, 26533, 27002, 27490, 27495, 27512, 27734, 27765
 28134, 28279, 28689, 28823, 28851, 29005, 29171, 29193, 29310, 29699, 29748, 29842, 29886, 29921, 29954, 30049
 30247, 30266, 30357, 30480, 30766, 31112, 31404, 31434, 31586, 31675, 31794, 31804, 31931, 31940, 31960, 32042
 32181, 32294, 32313, 32529, 32589, 32627, 32861, 33130, 33247, 33363, 33485, 33599, 33629, 33652, 33704, 33766
 33812, 33872, 33931, 34033, 34456, 34777, 34795, 34807, 34840, 34849, 34930, 34943, 34963, 35186, 35299, 35434
 35475, 35652, 35737, 35740, 35767, 35836, 36060, 36061, 36072, 36123, 36130, 36148, 36261, 36372, 36388, 36570
 36617, 36642, 36648, 36705, 36772, 36808, 36924, 37285, 37331, 37532, 37549, 37555, 37703, 37724, 37754, 37764
** ... 14 like lines cut
*Elset, elset=_surface_0_All_S2, internal
   298,  1299,  3388,  4041,  6286,  6834,  6912,  8930,  9466, 10072, 12754, 13434, 13453, 13601, 13874, 13977
 14054, 14139, 14167, 14172, 14825, 15031, 15065, 15316, 15377, 15649, 15654, 15697, 15872, 16138, 16144, 16207
 16415, 16444, 16595, 16808, 16816, 16913, 17012, 17028, 17113, 17203, 17287, 17588, 17646, 17703, 17749, 17826
 17843, 17980, 18049, 18376, 18626, 18711, 18755, 18877, 18885, 18940, 19119, 19129, 19159, 19378, 19604, 19820
 19968, 20036, 20046, 20095, 20096, 20141, 20156, 20157, 20162, 20163, 20289, 20444, 20450, 20453, 20859, 20958
 21138, 21195, 21295, 21342, 21418, 21460, 21547, 21588, 21700, 21785, 21935, 22573, 22602, 22621, 22730, 22832
 23029, 23080, 23126, 23201, 23290, 23532, 23639, 24048, 24059, 24101, 24189, 24394, 24408, 24652, 24859, 25077
 25157, 25304, 25473, 25585, 25617, 25717, 25922, 26072, 26190, 26240, 26289, 26309, 26674, 26928, 26981, 26995
 27105, 27125, 27126, 27271, 27343, 27559, 27579, 27612, 27615, 27649, 27656, 27661, 27821, 28271, 28312, 28318
 28362, 28392, 28495, 28589, 28622, 28649, 28824, 29112, 29750, 29781, 29809, 29821, 29903, 29959, 30051, 30148
 30256, 30392, 30440, 30481, 30503, 30541, 30616, 30904, 30987, 31168, 31175, 31227, 31295, 31310, 31456, 31460
 31504, 31547, 31560, 31590, 31632, 31646, 31785, 32034, 32040, 32062, 32119, 32210, 32407, 32443, 32449, 32516
 32538, 32710, 32744, 32796, 32821, 33207, 33211, 33254, 33343, 33417, 33485, 33503, 33613, 33648, 33769, 33821
 33947, 34028, 34258, 34280, 34319, 34424, 34523, 35065, 35140, 35149, 35238, 35297, 35309, 35589, 35785, 36099
 36104, 36212, 36262, 36468, 36557, 36626, 36631, 36672, 36681, 36711, 36724, 36733, 36766, 36793, 36823, 36838
 36987, 37081, 37094, 37136, 37189, 37190, 37451, 37483, 37490, 37718, 37982, 38100, 38185, 38229, 38313, 38494
 38509, 38642, 38707, 38773, 39009, 39075, 39121, 39136, 39324, 39350, 39370, 39474, 39671, 39707, 39757, 39939
 40015, 40351, 40466, 40505, 40925, 40980, 41024, 41038, 41075, 41283, 41379, 41450, 41498, 41718, 41906, 42172
 42178, 42261, 42283, 42340, 42363, 42383, 42386, 42416, 42652, 42668, 42818, 42931, 43181, 43344, 43414, 43489
 43690, 43782, 43839, 43932, 43939, 43951, 44004, 44078, 44126, 44268, 44292, 44409, 44572, 44639, 44857, 44865
** ... 7 like lines cut
*Elset, elset=_surface_0_All_S1, internal
  1641,  1643,  2286,  2475,  2539,  2752,  2756,  4203,  4378,  4507,  4674,  4681,  6204,  6588,  6721,  6782
  7072,  7101,  7103,  7460,  7568,  7584,  7861,  8133,  8292,  8528,  8728,  9875, 10744, 10951, 11099, 11331
 13026, 13296, 13476, 13521, 13634, 13729, 14406, 14891, 15306, 15493, 15697, 15751, 15812, 15934, 15938, 16043
 16200, 16266, 16332, 16353, 16572, 16811, 16995, 18002, 18292, 18581, 18618, 18660, 18690, 18691, 18744, 18882
 18957, 19075, 19156, 19367, 19550, 19579, 19835, 19943, 19970, 20084, 20088, 20123, 20145, 20148, 20161, 20165
 20169, 20469, 20480, 20489, 20578, 20985, 21149, 21201, 21257, 21284, 21940, 21948, 22209, 22303, 22317, 22329
 22783, 22930, 23145, 23209, 23259, 23263, 23838, 24031, 25086, 25136, 25350, 25453, 25969, 26366, 26774, 26935
 27033, 27034, 27620, 28081, 28897, 29675, 30091, 30735, 30849, 30903, 31124, 31384, 31419, 31894, 32028, 32039
 32081, 32177, 32225, 32572, 32749, 32926, 32967, 33149, 33313, 33498, 33517, 33588, 33643, 33700, 34495, 35450
 35538, 35647, 35656, 35799, 36064, 36515, 36624, 36704, 36756, 36774, 36779, 36787, 36794, 37051, 37245, 37298
 37324, 37432, 37571, 38447, 38581, 38801, 39036, 39143, 39628, 40375, 40427, 40720, 40856, 41704, 41740, 41929
 41942, 41995, 42219, 42281, 42415, 42462, 42818, 42869, 42911, 42925, 42942, 43041, 43504, 43806, 44239, 44267
 44963, 45236, 45324, 45568, 45823, 46256, 46804, 46961, 47068, 47142, 47573, 47609, 47644, 47667, 47669, 47673
 47683, 47694, 47769, 47841, 48079, 48156, 48513, 50091, 50541, 50823, 51157, 51491, 52050, 52785, 53228, 53579
 53622, 54092, 54314, 54531, 54689, 54738, 54899, 54964, 55289, 55426, 55513, 56072, 56075, 56240, 56251, 56446
 56655, 56881, 57715, 57995, 58117, 58316, 58822, 58981, 59049, 60419, 60906, 61276, 61328, 61464, 61799, 61838
 61888, 61934, 62031, 63056, 63403, 63822, 64286, 64738, 65711, 66088, 66332, 67477, 68443, 68602, 68644, 69108
 69734, 71031, 71187, 71497, 71630, 71770, 71850, 72391, 72708, 73251, 73519, 73970, 74210, 74326
*Surface, type=ELEMENT, name=surface_0_All
_surface_0_All_S3, S3
_surface_0_All_S4, S4
_surface_0_All_S2, S2
_surface_0_All_S1, S1
*Elset, elset=_surface_1_All_S2, internal
   291,   662,   667,   991,  1160,  2229,  2951,  3828,  4776,  4941,  5130,  5313,  6200,  8017,  8945,  9866
 11889, 13003, 14070, 14077, 14338, 14562, 14609, 14645, 14853, 15614, 16667, 16985, 18195, 18483, 18663, 18763
 18896, 19306, 19310, 20053, 20102, 20694, 21142, 21349, 21546, 21696, 22026, 24208, 24914, 26104, 26467, 26595
 26709, 28868, 29681, 29798, 29820, 30087, 30170, 31745, 33080, 33540, 34220, 34736, 34835, 34904, 35019, 35153
 35206, 36974, 37209, 37257, 37847, 38063, 39099, 39232, 39863, 39928, 40457, 41930, 41976, 42388, 42431, 43052
 43086, 45342, 46139, 46475, 46786, 47179, 47433, 47434, 47439, 47653, 48234, 49034, 49042, 49832, 50398, 50537
 50827, 53065, 54068, 54673, 54845, 58116, 59565, 60793, 60903, 60976, 61192, 61348, 61726, 62254, 62991, 63637
 63872, 64702, 64866, 64972, 65394, 65733, 65937, 65973, 66341, 66683, 67050, 67155, 67523, 67766, 67775, 68052
 68240, 68493, 68716, 68851, 68973, 69093, 69131, 69230, 69390, 69468, 69505, 69592, 69595, 69632, 69649, 69750
 69805, 69807, 69879, 70026, 70097, 70214, 70291, 70400, 70461, 70478, 70526, 70698, 70813, 70942, 71132, 71465
 71502, 71548, 71549, 71587, 71636, 71674, 71675, 71702, 71706, 71817, 71825, 71877, 71981, 72104, 72191, 72350
 72604, 72611, 72642, 72649, 72947, 72979, 73024, 73040, 73099, 73113, 73206, 73318, 73484, 73537, 73643, 73839
 73860, 74045, 74078, 74101, 74132, 74153, 74239, 74248, 74332, 74357, 74361, 74394
*Elset, elset=_surface_1_All_S3, internal
   144,   449,   474,   520,   590,  1188,  1189,  1200,  1211,  1230,  1244,  1266,  1271,  1282,  1348,  1395
  1459,  1477,  1500,  1528,  1560,  1640,  1645,  1765,  1777,  1855,  1875,  1889,  1977,  2001,  2014,  2077
  2178,  2193,  2200,  2213,  2224,  2233,  2283,  2285,  2292,  2322,  2323,  2333,  2338,  2360,  2457,  2482
  2494,  2495,  2546,  2547,  2678,  2682,  2714,  2731,  2757,  2823,  2836,  2839,  2928,  2987,  2998,  3031
  3062,  3168,  3202,  3205,  3232,  3240,  3250,  3293,  3307,  3339,  3378,  3379,  3396,  3408,  3433,  3440
  3454,  3473,  3478,  3483,  3496,  3523,  3537,  3695,  3745,  3747,  3757,  3776,  3785,  3788,  3830,  3836
  3848,  3870,  3908,  3925,  3942,  3997,  4001,  4034,  4061,  4095,  4213,  4224,  4229,  4237,  4258,  4278
  4331,  4336,  4347,  4457,  4472,  4513,  4554,  4559,  4568,  4578,  4592,  4599,  4640,  4655,  4696,  4734
  4749,  4788,  4830,  4840,  4897,  4931,  4975,  4988,  4993,  5046,  5088,  5095,  5099,  5139,  5178,  5190
  5199,  5203,  5218,  5221,  5266,  5267,  5277,  5330,  5412,  5511,  5526,  5569,  5579,  5585,  5612,  5643
  5692,  5695,  5713,  5714,  5769,  5849,  5854,  5886,  5900,  5952,  5964,  5966,  5988,  5989,  6063,  6106
  6111,  6126,  6155,  6197,  6262,  6348,  6357,  6436,  6459,  6463,  6472,  6499,  6513,  6517,  6527,  6580
  6621,  6681,  6711,  6771,  6780,  6814,  6872,  6889,  6923,  6932,  6988,  7018,  7042,  7058,  7068,  7075
  7116,  7118,  7158,  7169,  7207,  7210,  7257,  7302,  7321,  7376,  7401,  7448,  7485,  7499,  7506,  7513
  7535,  7591,  7638,  7726,  7818,  7820,  7906,  7984,  8000,  8016,  8054,  8139,  8158,  8164,  8203,  8221
  8268,  8314,  8320,  8352,  8393,  8433,  8531,  8541,  8555,  8599,  8601,  8605,  8662,  8675,  8685,  8749
  8819,  8824,  8842,  8854,  8920,  8941,  8963,  9013,  9032,  9054,  9063,  9120,  9132,  9186,  9190,  9246
  9250,  9257,  9266,  9274,  9275,  9283,  9284,  9289,  9312,  9335,  9351,  9357,  9371,  9391,  9420,  9421
  9423,  9443,  9504,  9506,  9507,  9548,  9565,  9567,  9570,  9584,  9594,  9617,  9660,  9727,  9760,  9797
  9824,  9825,  9827,  9938,  9939,  9971,  9982, 10015, 10079, 10083, 10090, 10118, 10144, 10166, 10189, 10193
** ... 277 like lines cut
*Elset, elset=_surface_1_All_S1, internal
   650,  3356,  3401,  4745,  5527,  6040,  6174,  6305,  6984,  7195,  7580,  8089,  8435,  9015,  9203,  9467
 10275, 10364, 11205, 11323, 11342, 12492, 12520, 12745, 13564, 13853, 14057, 14300, 15610, 16998, 17973, 18116
 18575, 18648, 18996, 19190, 19519, 19983, 20069, 21013, 21173, 21511, 22180, 23085, 23396, 23517, 23642, 23644
 23678, 23709, 24639, 25166, 25403, 25999, 26388, 27077, 28129, 28199, 29102, 29462, 30080, 30657, 30964, 31200
 31205, 31809, 31827, 32242, 32246, 33717, 33732, 33889, 34376, 35305, 35655, 36911, 37311, 37318, 37814, 37819
 37903, 38048, 38554, 39574, 39758, 40181, 40409, 41724, 42004, 42430, 42431, 42666, 43079, 43115, 43400, 43631
 44453, 44779, 45532, 46694, 48445, 54124, 56142, 56151, 56331, 57100, 57451, 58066, 58113, 58308, 58955, 60043
 64660, 65695, 67238, 67240, 67549, 67611, 67995, 68527, 68668, 68896, 68960, 69414, 69885, 69898, 69982, 70520
 70598, 70684, 70790, 71212, 71325, 71334, 71428, 71598, 71612, 71703, 71964, 72039, 72176, 72584, 72585, 72735
 73003, 73097, 73112, 73125, 73274, 73332, 73685, 74023, 74067, 74075, 74183
*Elset, elset=_surface_1_All_S4, internal
   504,   749,  1376,  2331,  3299,  3828,  3883,  4118,  4394,  4747,  4983,  5631,  6081,  6757,  7113,  7170
  7692,  7750,  7877,  7975,  8162,  8198,  8290,  8778,  8815,  9026,  9264,  9422,  9623,  9863, 10688, 10712
 11325, 11573, 12197, 12351, 12660, 12991, 13083, 13103, 13162, 13575, 13691, 14009, 14556, 14569, 15087, 15092
 15283, 15300, 15622, 16944, 17308, 17436, 17676, 18271, 18835, 18968, 19223, 20119, 20335, 20754, 20881, 22261
 22453, 22822, 22928, 23138, 23300, 24010, 24299, 24580, 25066, 25411, 25977, 26272, 26345, 26513, 26558, 27064
 27929, 28115, 28178, 28438, 28599, 28789, 29215, 29292, 29406, 29870, 30016, 30740, 30854, 31670, 31856, 32750
 33532, 33805, 33928, 34376, 34885, 34970, 35210, 35289, 36510, 36550, 36558, 36695, 37170, 37416, 37492, 37619
 38463, 39037, 39234, 39505, 40161, 40345, 40969, 41259, 41568, 41714, 42205, 42222, 42429, 42437, 42887, 42915
 42962, 43083, 43469, 43848, 44566, 44736, 44864, 44958, 45268, 45460, 45538, 45578, 45645, 45755, 46125, 46250
 46387, 46617, 47182, 47647, 47648, 47989, 48549, 48844, 48899, 49008, 49029, 49346, 49545, 49579, 49789, 50033
 52939, 54118, 54982, 56262, 56998, 57131, 58114, 58640, 58888, 60255, 60627, 60791, 61038, 61159, 61501, 61922
 61947, 62618, 64664, 64682, 64813, 65509, 65550, 66319, 66408, 67058, 67310, 67695, 67704, 67805, 67916, 68106
 68138, 68276, 68333, 68734, 68940, 68981, 68985, 69136, 69169, 69263, 69270, 69272, 69614, 69672, 69677, 69787
 69793, 69881, 69884, 69888, 70050, 70221, 70324, 70380, 70495, 70731, 70833, 70854, 70902, 71096, 71122, 71151
 71206, 71216, 71673, 71764, 71831, 72026, 72328, 72437, 72458, 72513, 72583, 72705, 72763, 72913, 73230, 73341
 73388, 73440, 73545, 73684, 73747, 73957, 74033, 74068, 74088, 74118
*Surface, type=ELEMENT, name=surface_1_All
_surface_1_All_S2, S2
_surface_1_All_S3, S3
_surface_1_All_S4, S4
_surface_1_All_S1, S1
*Elset, elset=_surface_2_All_S4, internal
   154,   271,   272,   353,   818,  1128,  1438,  1493,  2147,  2688,  2991,  3122,  3380,  4014,  4254,  4594
  4677,  4713,  4851,  4917,  5204,  5654,  5843,  6031,  6135,  6168,  6563,  7070,  7326,  7887,  9679,  9680
  9736,  9988, 10329, 10379, 10595, 10624, 10665, 10692, 10863, 12390, 13066, 13304, 14494, 14521, 15933, 16003
 18720, 19407, 19727, 20027, 20290, 20505, 20677, 20915, 21163, 21326, 21456, 21634, 21797, 21837, 21917, 21947
 21972, 21994, 22044, 22109, 22111, 22449, 22880, 23438, 23619, 23954, 23979, 24024, 24671, 24705, 24856, 24921
 25783, 26105, 26142, 26449, 26978, 27097, 27099, 27596, 28291, 28451, 29106, 29187, 30002, 31319, 31612, 31944
 32473, 32945, 33029, 33160, 33516, 33985, 34177, 34762, 35080, 35586, 35835, 35976, 36186, 36500, 37272, 38720
 38795, 38938, 39001, 40938, 41354, 41594, 41596, 41823, 42016, 42525, 43775, 43886, 44002, 44107, 44362, 44402
 45030, 45933, 47313, 47997, 48197, 48471, 49091, 49477, 49809, 50464, 50512, 50598, 50700, 50841, 51003, 51616
 51740, 51972, 52245, 52271, 52626, 52707, 53017, 53112, 53114, 53123, 53241, 53491, 53711, 53771, 53999, 54198
 54212, 54528, 54697, 54923, 54976, 55075, 55218, 55316, 55403, 55499, 55523, 55794, 56013, 56139, 56177, 56591
 56648, 56698, 56728, 56942, 56957, 57074, 57261, 57267, 57334, 57374, 57679, 57751, 57895, 58033, 58052, 58054
 58164, 58240, 58254, 58301, 58380, 58409, 58444, 58784, 59190, 59739, 59820, 59916, 60016, 60108, 60151, 60172
 60987, 61128, 61238, 61338, 61740, 61925, 62078, 62168, 62333, 62674, 63354, 63357, 63552, 63715, 63758, 64416
 64462, 64541, 64718, 64834, 65145, 65159, 65426, 65803, 66316, 66447, 66500, 66807, 66903, 67528, 67572, 67655
 67711, 67760, 68434, 68507, 69051, 69416, 69439, 69450, 69530, 71236, 71597, 72476, 72859, 73824
*Elset, elset=_surface_2_All_S2, internal
    54,   624,   626,   839,  5584,  5847,  9000,  9324,  9495,  9787, 10070, 10470, 10669, 10729, 10793, 11670
 14182, 14186, 14881, 16142, 16521, 17880, 19167, 21091, 21651, 22241, 22786, 22800, 23225, 23427, 26098, 26613
 26691, 27474, 28163, 30882, 31341, 31607, 31936, 32687, 33605, 33936, 36144, 36647, 36927, 37738, 39192, 39950
 40120, 40338, 40398, 41582, 42971, 43398, 44247, 44313, 44519, 45097, 45709, 46111, 46481, 48321, 48432, 48963
 49851, 49950, 50241, 50697, 50746, 50810, 51174, 51531, 51622, 51853, 52053, 52203, 52223, 52371, 52427, 52466
 52497, 52682, 52689, 52719, 52840, 53008, 53145, 53298, 53344, 53501, 53556, 53897, 53916, 53984, 54004, 54174
 54252, 54268, 54586, 54613, 54615, 55006, 55010, 55138, 55466, 56343, 56584, 57048, 57162, 57845, 57872, 58038
 58269, 58284, 58320, 58422, 58463, 58504, 58505, 58751, 58775, 58985, 59104, 59188, 59342, 59627, 59660, 59927
 60061, 60116, 60149, 60207, 60261, 60315, 60438, 60458, 60822, 60874, 60968, 61432, 61815, 61936, 62195, 62433
 62566, 62610, 63073, 63361, 63554, 63564, 63602, 63624, 63869, 63956, 63993, 64579, 64617, 64802, 65064, 65492
 65730, 65742, 66115, 66299, 66320, 66522, 66897, 66989, 66991, 67137, 67231, 67283, 67503, 67517, 67967, 68614
 68636, 68950, 69073, 69149, 69463, 69496, 69625, 69932, 70000, 70142, 70537, 71277
*Elset, elset=_surface_2_All_S3, internal
    75,   210,   572,  1056,  1293,  1959,  2616,  2769,  2784,  2925,  2996,  3258,  3320,  3328,  3514,  3570
  3583,  3622,  3802,  3803,  3851,  3913,  4284,  4493,  4710,  4768,  4814,  4832,  4856,  5040,  5223,  5232
  5235,  5236,  5315,  5362,  5410,  5491,  5494,  5499,  5562,  5645,  5687,  5757,  6328,  6433,  6641,  6649
  6650,  6655,  6787,  6790,  6969,  7087,  7090,  7347,  7349,  7372,  7388,  7531,  7600,  7630,  7699,  7701
  7816,  7819,  7871,  7917,  8119,  8124,  8146,  8194,  8296,  8303,  8316,  8349,  8409,  8442,  8452,  8497
  8747,  9003,  9124,  9135,  9177,  9265,  9294,  9323,  9325,  9386,  9401,  9405,  9463,  9492,  9817,  9857
  9983,  9987, 10059, 10068, 10292, 10430, 10487, 10563, 10640, 10719, 10721, 10724, 10790, 10833, 10856, 10864
 10866, 10914, 10915, 10932, 11114, 11156, 11194, 11196, 11236, 11264, 11280, 11350, 11402, 11444, 11563, 11585
 11599, 11674, 11837, 11899, 11941, 11980, 12000, 12012, 12023, 12285, 12318, 12325, 12383, 12396, 12445, 12524
 12614, 12628, 12636, 12641, 12649, 12682, 12728, 12856, 12865, 12871, 12960, 12961, 12965, 13019, 13073, 13116
 13125, 13126, 13129, 13136, 13138, 13140, 13163, 13170, 13221, 13268, 13273, 13280, 13295, 13303, 13315, 13329
 13358, 13374, 13408, 13431, 13433, 13449, 13480, 13494, 13508, 13540, 13548, 13551, 13574, 13576, 13596, 13628
 13695, 13703, 13708, 13713, 13765, 13770, 13805, 13843, 13900, 13905, 13908, 13929, 13945, 14015, 14041, 14058
 14071, 14072, 14091, 14094, 14150, 14179, 14191, 14216, 14233, 14237, 14245, 14249, 14273, 14276, 14308, 14312
 14314, 14361, 14373, 14374, 14388, 14392, 14394, 14401, 14403, 14408, 14423, 14458, 14474, 14476, 14488, 14496
 14506, 14508, 14529, 14531, 14548, 14577, 14583, 14587, 14613, 14618, 14646, 14658, 14661, 14695, 14698, 14700
 14705, 14737, 14749, 14771, 14878, 14883, 15046, 15049, 15273, 15322, 15395, 15423, 15549, 15607, 15638, 15784
 15789, 15950, 15955, 15985, 15986, 15987, 15990, 16001, 16117, 16312, 16405, 16406, 16414, 16421, 16482, 16501
 16507, 16547, 16564, 16617, 16873, 16966, 16976, 17003, 17010, 17101, 17106, 17175, 17299, 17366, 17380, 17502
 17550, 17575, 17652, 17656, 17743, 17769, 17882, 18135, 18224, 18232, 18304, 18546, 18563, 18706, 18709, 18722
** ... 278 like lines cut
*Elset, elset=_surface_2_All_S1, internal
   896,  2518,  3037,  3255,  4276,  4676,  4800,  5041,  5145,  5444,  5915,  6108,  6708,  7217,  7339,  7498
  7668,  7862,  8249,  8453,  8686,  9006,  9288, 10583, 11134, 12230, 13986, 14559, 14993, 15172, 15298, 15401
 18035, 19468, 20830, 21085, 21158, 21273, 21838, 22095, 22200, 22354, 23620, 24737, 25554, 26450, 27160, 27774
 27890, 28418, 29509, 29882, 31371, 31814, 32515, 33848, 34016, 34274, 34898, 36281, 36930, 38142, 38567, 38709
 39303, 39442, 39911, 41204, 41676, 44185, 44615, 44984, 44994, 45435, 45858, 46574, 46655, 46752, 46882, 46941
 48474, 50697, 51059, 51733, 51842, 51933, 52202, 52327, 52735, 52956, 53116, 53240, 53847, 53959, 55056, 55087
 55408, 55778, 55892, 55917, 56150, 56453, 56580, 56689, 56731, 57257, 58386, 58428, 58790, 58805, 58952, 59190
 59639, 60035, 60045, 60315, 60417, 60642, 60767, 61060, 61078, 61101, 61299, 61330, 61564, 61686, 61958, 61982
 62069, 62168, 62226, 62295, 62381, 62422, 62592, 62856, 62885, 63007, 63129, 63191, 63277, 63568, 63900, 64212
 64300, 64444, 64542, 66111, 66731, 66765, 67008, 67062, 67169, 67500, 67693, 68294, 68375, 68395, 68439, 68529
 68636, 69053, 69572
*Surface, type=ELEMENT, name=surface_2_All
_surface_2_All_S4, S4
_surface_2_All_S2, S2
_surface_2_All_S3, S3
_surface_2_All_S1, S1
*Elset, elset=_surface_3_All_S3, internal
   262,  1894,  2471, 11751, 12314, 13132, 13241, 13503, 13671, 13831, 13850, 14029, 14039, 14044, 14050, 14143
 14144, 14258, 14348, 14353, 14362, 14402, 14407, 14439, 14440, 14451, 14581, 14582, 14639, 14644, 14648, 14679
 14682, 14736, 14738, 14753, 14809, 14812, 14845, 14922, 15399, 16325, 16373, 16399, 16562, 16916, 18564, 18802
 19089, 19463, 19487, 19686, 20982, 21056, 21157, 21254, 21279, 21468, 21923, 23297, 23662, 23663, 23871, 24475
 24485, 24503, 24524, 24553, 24663, 24664, 24674, 24820, 24895, 25611, 25665, 25830, 26401, 27756, 29339, 29890
 30199, 30202, 30568, 32311, 32893, 33196, 34409, 34446, 34938, 34991, 35006, 35343, 35348, 35349, 35599, 35814
 35998, 37265, 37295, 37352, 37365, 37425, 37780, 38544, 38548, 38577, 38724, 38742, 38761, 39421, 39562, 39612
 39800, 40145, 40565, 40943, 41279, 41416, 42371, 42563, 42578, 42641, 43073, 43325, 43980, 44312, 44378, 44393
 44439, 44527, 44533, 44536, 44575, 44678, 46029, 46439, 46489, 47712, 47894, 47984, 48082, 48287, 48385, 48456
 48511, 48530, 48573, 48637, 48677, 48702, 48730, 48731, 48743, 48749, 48758, 48765, 48777, 48780, 48793, 48800
 48834, 48846, 48848, 48875, 48890, 48894, 48902, 48906, 48912, 48927, 48937, 48941, 48948, 48954, 48956, 48959
 48970, 48977, 48985, 48987, 48999, 49001, 49003, 49007, 49032, 49056, 49071, 49085, 49087, 49090, 49098, 49104
 49115, 49117, 49122, 49125, 49140, 49145, 49148, 49150, 49158, 49160, 49162, 49186, 49207, 49213, 49215, 49216
 49248, 49260, 49265, 49275, 49290, 49291, 49298, 49300, 49303, 49306, 49307, 49314, 49318, 49326, 49331, 49338
 49344, 49352, 49354, 49355, 49365, 49368, 49372, 49374, 49382, 49385, 49391, 49402, 49415, 49422, 49424, 49434
 49439, 49441, 49442, 49463, 49469, 49473, 49475, 49479, 49481, 49494, 49497, 49504, 49509, 49515, 49523, 49530
 49533, 49534, 49539, 49555, 49556, 49558, 49577, 49585, 49588, 49589, 49593, 49606, 49627, 49628, 49630, 49632
 49633, 49634, 49640, 49642, 49648, 49651, 49656, 49661, 49667, 49676, 49682, 49684, 49686, 49691, 49708, 49721
 49735, 49757, 49759, 49765, 49774, 49781, 49782, 49784, 49794, 49802, 49803, 49812, 49815, 49829, 49834, 49837
 49838, 49846, 49847, 49854, 49855, 49858, 49859, 49860, 49866, 49868, 49887, 49889, 49891, 49897, 49901, 49915
** ... 37 like lines cut
*Elset, elset=_surface_3_All_S1, internal
  3095,  3916,  4191,  6365,  9387, 10386, 13131, 17537, 19637, 19845, 22004, 23843, 28022, 30213, 34959, 35553
 35796, 37036, 38311, 42674, 45972, 47317, 48071, 48755, 49621, 49711, 51470, 51521, 52108, 54924, 57646, 61040
 64828, 65369, 65854, 67087, 71815
*Elset, elset=_surface_3_All_S4, internal
  3229,  4561,  9192, 15083, 24525, 28859, 30753, 31096, 33874, 34403, 35492, 35508, 36563, 38730, 48726, 48944
 48982, 49188, 49540, 49750, 50510, 50554, 50625, 50691, 50944, 51192, 51727, 52062, 52517, 53125, 54136, 55135
 57874, 59683, 60319, 61117, 61793, 64315, 64827, 65341, 65506, 66440, 67571, 74139
*Elset, elset=_surface_3_All_S2, internal
 48946, 49178, 49293, 49324, 49425, 49429, 49564, 49773, 49813, 49910, 50002, 50103, 50151, 50704, 50727, 50964
 51056, 51519, 51561, 51719, 52034, 52194, 54684, 60147, 62790, 65846
*Surface, type=ELEMENT, name=surface_3_All
_surface_3_All_S3, S3
_surface_3_All_S1, S1
_surface_3_All_S4, S4
_surface_3_All_S2, S2
** Section: Rubber
*Solid Section, elset=RubberSet, material=Rubber
,
*End Part
**  
**
** ASSEMBLY
**
*Assembly, name=Assembly
**  
*Instance, name=final_model-1, part=final_model
*End Instance
**  
*Node
      1,           0.,           0.,          70.
*Nset, nset=_PickedSet18, internal
 1,
*Elset, elset=__PickedSurf17_S3, internal, instance=final_model-1
   377,  2085,  2555,  3517,  3906,  5727,  6920,  7407,  8796,  8930,  9347, 11013, 11228, 12771, 12878, 12893
 12905, 13072, 13413, 13428, 13476, 13567, 13602, 13872, 13895, 13920, 14124, 14322, 14415, 14636, 14769, 14791
 14890, 14891, 15009, 15019, 15024, 15025, 15026, 15039, 15064, 15084, 15094, 15099, 15113, 15117, 15138, 15145
 15146, 15164, 15182, 15188, 15198, 15210, 15212, 15238, 15239, 15241, 15245, 15247, 15259, 15263, 15267, 15317
 15323, 15326, 15329, 15338, 15343, 15352, 15354, 15366, 15378, 15382, 15393, 15397, 15405, 15413, 15415, 15418
 15426, 15428, 15445, 15469, 15493, 15502, 15508, 15517, 15521, 15525, 15526, 15527, 15531, 15538, 15577, 15602
 15608, 15618, 15619, 15631, 15655, 15671, 15681, 15713, 15729, 15730, 15732, 15751, 15795, 15811, 15812, 15859
 15862, 15867, 15878, 15883, 15892, 15896, 15899, 15900, 15901, 15902, 15908, 15913, 15917, 15937, 15947, 15951
 15953, 15958, 15961, 15963, 15968, 15969, 15973, 15976, 15977, 15992, 15993, 16007, 16013, 16020, 16027, 16047
 16049, 16050, 16058, 16067, 16074, 16079, 16095, 16097, 16098, 16103, 16107, 16114, 16120, 16129, 16130, 16131
 16135, 16136, 16141, 16145, 16147, 16151, 16155, 16156, 16157, 16160, 16165, 16170, 16175, 16185, 16186, 16188
 16193, 16228, 16230, 16242, 16243, 16282, 16291, 16292, 16296, 16304, 16307, 16320, 16327, 16333, 16335, 16336
 16355, 16356, 16357, 16358, 16361, 16365, 16379, 16382, 16398, 16403, 16404, 16416, 16419, 16424, 16427, 16428
 16441, 16453, 16457, 16475, 16478, 16479, 16483, 16497, 16499, 16505, 16510, 16512, 16518, 16522, 16524, 16532
 16540, 16550, 16551, 16552, 16554, 16561, 16567, 16568, 16571, 16578, 17620, 18862, 18965, 18988, 18990, 19001
 19013, 19020, 19021, 19026, 19030, 19033, 19034, 19045, 19085, 19116, 19117, 19120, 19148, 19366, 19448, 19452
 19458, 19459, 19466, 19483, 19484, 19485, 19488, 19496, 19497, 19500, 19504, 19508, 19579, 19604, 19690, 19693
 19703, 19715, 19723, 19725, 19728, 19746, 19775, 19780, 19819, 19931, 19941, 19943, 19951, 19965, 19968, 19972
 19976, 19999, 20075, 20120, 20121, 20135, 20156, 20164, 20168, 20221, 20302, 20355, 20396, 20453, 20469, 20470
 20471, 20473, 20478, 20541, 20666, 20679, 20682, 20708, 20709, 20914, 20917, 24379, 24501, 24515, 24541, 25471
** ... 7 like lines cut
*Elset, elset=__PickedSurf17_S2, internal, instance=final_model-1
  6834, 12754, 15377, 15654, 15697, 16138, 16144, 16207, 16415, 16444, 18755, 19119, 20444, 35785, 36838
*Elset, elset=__PickedSurf17_S4, internal, instance=final_model-1
 11014, 12870, 12883, 14106, 15167, 15234, 15387, 15656, 15666, 15904, 15941, 16032, 18857, 19510, 31960, 33599
 34795, 36148, 36372, 44907, 48818, 73141
*Elset, elset=__PickedSurf17_S1, internal, instance=final_model-1
 15934, 19970, 42219, 51491, 57995, 69734
*Surface, type=ELEMENT, name=_PickedSurf17, internal
__PickedSurf17_S3, S3
__PickedSurf17_S2, S2
__PickedSurf17_S4, S4
__PickedSurf17_S1, S1
** Constraint: Constraint-1
*Coupling, constraint name=Constraint-1, ref node=_PickedSet18, surface=_PickedSurf17
*Kinematic
*End Assembly
** 
** MATERIALS
** 
*Material, name=Rubber
*Density
 1.08e-09,
*Hyperelastic, neo hooke
 0.241, 0.416667,       0.,       0.,       0.,       0.
** 
** INTERACTION PROPERTIES
** 
*Surface Interaction, name=IntProp-1
1.,
*Surface Behavior, pressure-overclosure=HARD
** 
** BOUNDARY CONDITIONS
** 
** Name: BC-1 Type: Displacement/Rotation
*Boundary
final_model-1.surface_0_Bottom, 1, 1
final_model-1.surface_0_Bottom, 2, 2
final_model-1.surface_0_Bottom, 3, 3
final_model-1.surface_0_Bottom, 4, 4
final_model-1.surface_0_Bottom, 5, 5
final_model-1.surface_0_Bottom, 6, 6
** 
** INTERACTIONS
** 
** Interaction: Int-1
*Contact Pair, interaction=IntProp-1, type=SURFACE TO SURFACE
final_model-1.surface_0_All,
** Interaction: Int-2
*Contact Pair, interaction=IntProp-1, type=SURFACE TO SURFACE
final_model-1.surface_1_All,
** Interaction: Int-3
*Contact Pair, interaction=IntProp-1, type=SURFACE TO SURFACE
final_model-1.surface_2_All,
** Interaction: Int-4
*Contact Pair, interaction=IntProp-1, type=SURFACE TO SURFACE
final_model-1.surface_3_All,
** ----------------------------------------------------------------
** 
** STEP: Step-1
** 
*Step, name=Step-1, nlgeom=YES
*Static
1., 1., 1e-05, 1.
** 
** LOADS
** 
** Name: Load-1   Type: Pressure
*Dsload
final_model-1.surface_1_All, P, 0.08
** 
** OUTPUT REQUESTS
** 
*Restart, write, frequency=0
** 
** FIELD OUTPUT: F-Output-1
** 
*Output, field, variable=PRESELECT
** 
** HISTORY OUTPUT: H-Output-1
** 
*Output, history, variable=PRESELECT
*End Step
